/*---------------------------------------------------------------------------*\
  =========                 |
  \\      /  F ield         | OpenFOAM: The Open Source CFD Toolbox
   \\    /   O peration     | Website:  https://openfoam.org
    \\  /    A nd           | Version:  8
     \\/     M anipulation  |
\*---------------------------------------------------------------------------*/
Build  : 8-9b73cf21a682
Exec   : icoFoam
Date   : Nov 15 2020
Time   : 17:22:10
Host   : "pop-os"
PID    : 81307
I/O    : uncollated
Case   : /home/tbindas/OpenFOAM/tbindas-8/midterm/cavity_new/cavity
nProcs : 1
sigFpe : Enabling floating point exception trapping (FOAM_SIGFPE).
fileModificationChecking : Monitoring run-time modified files using timeStampMaster (fileModificationSkew 10)
allowSystemOperations : Allowing user-supplied system call operations

// * * * * * * * * * * * * * * * * * * * * * * * * * * * * * * * * * * * * * //
Create time

Overriding DebugSwitches according to controlDict
    lduMatrix       2;

Create mesh for time = 0

Reading transportProperties

Reading field p

Reading field U

Reading/calculating face flux field phi


Starting time loop

Time = 0.01

Courant Number mean: 0 max: 0
   Normalisation factor = 0.004
smoothSolver:  Solving for Ux, Initial residual = 1, Final residual = 9.77297e-06, No Iterations 39
   Normalisation factor = 1e-20
smoothSolver:  Solving for Uy, Initial residual = 0, Final residual = 0, No Iterations 0
   Normalisation factor = 5.64821e-09
DICPCG:  Solving for p, Initial residual = 1, Final residual = 0.0336712, No Iterations 6
time step continuity errors : sum local = 2.02656e-08, global = 2.06783e-20, cumulative = 2.06783e-20
   Normalisation factor = 6.02531e-09
DICPCG:  Solving for p, Initial residual = 0.899832, Final residual = 9.29223e-07, No Iterations 35
time step continuity errors : sum local = 5.58987e-13, global = 4.22027e-19, cumulative = 4.42705e-19
ExecutionTime = 0.01 s  ClockTime = 0 s

Time = 0.02

Courant Number mean: 0.194003 max: 1.51493
   Normalisation factor = 0.010165
smoothSolver:  Solving for Ux, Initial residual = 0.0954306, Final residual = 8.80496e-06, No Iterations 35
   Normalisation factor = 4.54915e-09
smoothSolver:  Solving for Uy, Initial residual = 0.562857, Final residual = 9.37114e-06, No Iterations 36
   Normalisation factor = 1.13018e-08
DICPCG:  Solving for p, Initial residual = 0.949424, Final residual = 0.0328007, No Iterations 6
time step continuity errors : sum local = 3.71641e-08, global = 1.30269e-18, cumulative = 1.7454e-18
   Normalisation factor = 1.16642e-08
DICPCG:  Solving for p, Initial residual = 0.911102, Final residual = 8.48253e-07, No Iterations 35
time step continuity errors : sum local = 9.88909e-13, global = -1.17274e-18, cumulative = 5.72657e-19
ExecutionTime = 0.02 s  ClockTime = 0 s

Time = 0.03

Courant Number mean: 0.296606 max: 1.7432
   Normalisation factor = 0.0113726
smoothSolver:  Solving for Ux, Initial residual = 0.0451165, Final residual = 8.98365e-06, No Iterations 34
   Normalisation factor = 1.1176e-08
smoothSolver:  Solving for Uy, Initial residual = 0.485024, Final residual = 9.67027e-06, No Iterations 39
   Normalisation factor = 1.16547e-08
DICPCG:  Solving for p, Initial residual = 0.91754, Final residual = 0.0344065, No Iterations 6
time step continuity errors : sum local = 4.49042e-08, global = -1.47239e-19, cumulative = 4.25418e-19
   Normalisation factor = 1.17789e-08
DICPCG:  Solving for p, Initial residual = 0.914299, Final residual = 8.87141e-07, No Iterations 34
time step continuity errors : sum local = 1.03671e-12, global = -3.01558e-18, cumulative = -2.59016e-18
ExecutionTime = 0.02 s  ClockTime = 0 s

Time = 0.04

Courant Number mean: 0.372145 max: 1.81033
   Normalisation factor = 0.0120199
smoothSolver:  Solving for Ux, Initial residual = 0.0314301, Final residual = 9.73314e-06, No Iterations 33
   Normalisation factor = 2.05999e-08
smoothSolver:  Solving for Uy, Initial residual = 0.584156, Final residual = 9.12061e-06, No Iterations 46
   Normalisation factor = 1.44175e-08
DICPCG:  Solving for p, Initial residual = 0.916931, Final residual = 0.0415686, No Iterations 10
time step continuity errors : sum local = 9.08579e-08, global = 1.52947e-18, cumulative = -1.06069e-18
   Normalisation factor = 1.46612e-08
DICPCG:  Solving for p, Initial residual = 0.88391, Final residual = 4.44675e-07, No Iterations 34
time step continuity errors : sum local = 6.56772e-13, global = 1.2806e-18, cumulative = 2.19904e-19
ExecutionTime = 0.02 s  ClockTime = 0 s

Time = 0.05

Courant Number mean: 0.43436 max: 1.84271
   Normalisation factor = 0.0123933
smoothSolver:  Solving for Ux, Initial residual = 0.0251082, Final residual = 8.55442e-06, No Iterations 33
   Normalisation factor = 3.37374e-08
smoothSolver:  Solving for Uy, Initial residual = 0.702603, Final residual = 8.41713e-06, No Iterations 47
   Normalisation factor = 1.47307e-08
DICPCG:  Solving for p, Initial residual = 0.896787, Final residual = 0.0373169, No Iterations 18
time step continuity errors : sum local = 5.47087e-08, global = 5.54201e-19, cumulative = 7.74106e-19
   Normalisation factor = 1.91566e-08
DICPCG:  Solving for p, Initial residual = 0.680594, Final residual = 9.61719e-07, No Iterations 34
time step continuity errors : sum local = 1.83179e-12, global = -2.12338e-18, cumulative = -1.34928e-18
ExecutionTime = 0.02 s  ClockTime = 0 s

Time = 0.06

Courant Number mean: 0.488057 max: 1.86264
   Normalisation factor = 0.0126382
smoothSolver:  Solving for Ux, Initial residual = 0.0212513, Final residual = 9.62843e-06, No Iterations 32
   Normalisation factor = 1.98343e-08
smoothSolver:  Solving for Uy, Initial residual = 0.505434, Final residual = 8.06489e-06, No Iterations 40
   Normalisation factor = 1.50492e-08
DICPCG:  Solving for p, Initial residual = 0.932399, Final residual = 0.0309684, No Iterations 6
time step continuity errors : sum local = 6.29594e-08, global = -6.66277e-19, cumulative = -2.01555e-18
   Normalisation factor = 1.52978e-08
DICPCG:  Solving for p, Initial residual = 0.896341, Final residual = 7.26443e-07, No Iterations 35
time step continuity errors : sum local = 1.10433e-12, global = 2.01351e-18, cumulative = -2.03797e-21
ExecutionTime = 0.03 s  ClockTime = 0 s

Time = 0.07

Courant Number mean: 0.535494 max: 1.8765
   Normalisation factor = 0.01279
smoothSolver:  Solving for Ux, Initial residual = 0.018553, Final residual = 8.63371e-06, No Iterations 32
   Normalisation factor = 2.97417e-08
smoothSolver:  Solving for Uy, Initial residual = 0.624719, Final residual = 9.44967e-06, No Iterations 46
   Normalisation factor = 1.38916e-08
DICPCG:  Solving for p, Initial residual = 0.895373, Final residual = 0.0419801, No Iterations 18
time step continuity errors : sum local = 5.81403e-08, global = -1.67337e-19, cumulative = -1.69375e-19
   Normalisation factor = 1.71783e-08
DICPCG:  Solving for p, Initial residual = 0.715183, Final residual = 5.98028e-07, No Iterations 35
time step continuity errors : sum local = 1.02604e-12, global = 2.49249e-19, cumulative = 7.98742e-20
ExecutionTime = 0.03 s  ClockTime = 0 s

Time = 0.08

Courant Number mean: 0.577943 max: 1.88686
   Normalisation factor = 0.0128968
smoothSolver:  Solving for Ux, Initial residual = 0.0164646, Final residual = 9.83909e-06, No Iterations 31
   Normalisation factor = 1.97231e-08
smoothSolver:  Solving for Uy, Initial residual = 0.480439, Final residual = 8.23833e-06, No Iterations 39
   Normalisation factor = 1.50311e-08
DICPCG:  Solving for p, Initial residual = 0.931034, Final residual = 0.0285033, No Iterations 6
time step continuity errors : sum local = 5.44394e-08, global = 2.31116e-18, cumulative = 2.39104e-18
   Normalisation factor = 1.52447e-08
DICPCG:  Solving for p, Initial residual = 0.901024, Final residual = 6.9946e-07, No Iterations 34
time step continuity errors : sum local = 1.05972e-12, global = 4.93793e-19, cumulative = 2.88483e-18
ExecutionTime = 0.03 s  ClockTime = 0 s

Time = 0.09

Courant Number mean: 0.616198 max: 1.89498
   Normalisation factor = 0.0129624
smoothSolver:  Solving for Ux, Initial residual = 0.0147649, Final residual = 8.88984e-06, No Iterations 31
   Normalisation factor = 2.61156e-08
smoothSolver:  Solving for Uy, Initial residual = 0.566629, Final residual = 8.00868e-06, No Iterations 46
   Normalisation factor = 1.34322e-08
DICPCG:  Solving for p, Initial residual = 0.894671, Final residual = 0.0307952, No Iterations 19
time step continuity errors : sum local = 4.14391e-08, global = -1.22747e-18, cumulative = 1.65736e-18
   Normalisation factor = 1.57744e-08
DICPCG:  Solving for p, Initial residual = 0.751953, Final residual = 8.46788e-07, No Iterations 35
time step continuity errors : sum local = 1.32445e-12, global = 3.88229e-19, cumulative = 2.04558e-18
ExecutionTime = 0.04 s  ClockTime = 0 s

Time = 0.1

Courant Number mean: 0.650822 max: 1.90156
   Normalisation factor = 0.0130029
smoothSolver:  Solving for Ux, Initial residual = 0.0133219, Final residual = 8.04938e-06, No Iterations 31
   Normalisation factor = 1.94597e-08
smoothSolver:  Solving for Uy, Initial residual = 0.437022, Final residual = 8.68048e-06, No Iterations 37
   Normalisation factor = 1.1563e-08
DICPCG:  Solving for p, Initial residual = 0.910657, Final residual = 0.028547, No Iterations 6
time step continuity errors : sum local = 4.15536e-08, global = -1.57812e-18, cumulative = 4.67469e-19
   Normalisation factor = 1.15955e-08
DICPCG:  Solving for p, Initial residual = 0.899676, Final residual = 6.57986e-07, No Iterations 34
time step continuity errors : sum local = 7.66134e-13, global = 7.11073e-19, cumulative = 1.17854e-18
ExecutionTime = 0.04 s  ClockTime = 0 s

Time = 0.11

Courant Number mean: 0.682236 max: 1.90703
   Normalisation factor = 0.0130298
smoothSolver:  Solving for Ux, Initial residual = 0.0120618, Final residual = 9.24052e-06, No Iterations 30
   Normalisation factor = 2.09737e-08
smoothSolver:  Solving for Uy, Initial residual = 0.524891, Final residual = 8.5272e-06, No Iterations 45
   Normalisation factor = 1.38976e-08
DICPCG:  Solving for p, Initial residual = 0.919159, Final residual = 0.0318278, No Iterations 19
time step continuity errors : sum local = 4.39079e-08, global = -2.17156e-18, cumulative = -9.93022e-19
   Normalisation factor = 1.57377e-08
DICPCG:  Solving for p, Initial residual = 0.796802, Final residual = 7.99741e-07, No Iterations 35
time step continuity errors : sum local = 1.25121e-12, global = -2.92571e-18, cumulative = -3.91873e-18
ExecutionTime = 0.04 s  ClockTime = 0 s

Time = 0.12

Courant Number mean: 0.710774 max: 1.91166
   Normalisation factor = 0.0130412
smoothSolver:  Solving for Ux, Initial residual = 0.0109494, Final residual = 8.38926e-06, No Iterations 30
   Normalisation factor = 1.90436e-08
smoothSolver:  Solving for Uy, Initial residual = 0.444407, Final residual = 7.94691e-06, No Iterations 36
   Normalisation factor = 1.16443e-08
DICPCG:  Solving for p, Initial residual = 0.903274, Final residual = 0.0281966, No Iterations 6
time step continuity errors : sum local = 3.98994e-08, global = 4.66696e-18, cumulative = 7.48223e-19
   Normalisation factor = 1.15865e-08
DICPCG:  Solving for p, Initial residual = 0.903789, Final residual = 4.70032e-07, No Iterations 34
time step continuity errors : sum local = 5.4838e-13, global = 3.99968e-18, cumulative = 4.7479e-18
ExecutionTime = 0.04 s  ClockTime = 0 s

Time = 0.13

Courant Number mean: 0.736724 max: 1.91564
   Normalisation factor = 0.0130456
smoothSolver:  Solving for Ux, Initial residual = 0.00995326, Final residual = 9.65319e-06, No Iterations 29
   Normalisation factor = 1.91868e-08
smoothSolver:  Solving for Uy, Initial residual = 0.491714, Final residual = 9.95397e-06, No Iterations 43
   Normalisation factor = 1.40547e-08
DICPCG:  Solving for p, Initial residual = 0.922996, Final residual = 0.045257, No Iterations 10
time step continuity errors : sum local = 9.06948e-08, global = -9.93945e-20, cumulative = 4.64851e-18
   Normalisation factor = 1.43721e-08
DICPCG:  Solving for p, Initial residual = 0.881073, Final residual = 9.39582e-07, No Iterations 34
time step continuity errors : sum local = 1.35371e-12, global = -2.66198e-18, cumulative = 1.98653e-18
ExecutionTime = 0.05 s  ClockTime = 0 s

Time = 0.14

Courant Number mean: 0.760329 max: 1.91911
   Normalisation factor = 0.0130472
smoothSolver:  Solving for Ux, Initial residual = 0.00905428, Final residual = 8.77377e-06, No Iterations 29
   Normalisation factor = 3.05153e-08
smoothSolver:  Solving for Uy, Initial residual = 0.643155, Final residual = 9.00893e-06, No Iterations 46
   Normalisation factor = 1.49275e-08
DICPCG:  Solving for p, Initial residual = 0.896383, Final residual = 0.0338364, No Iterations 19
time step continuity errors : sum local = 5.087e-08, global = -1.04691e-18, cumulative = 9.39619e-19
   Normalisation factor = 1.88424e-08
DICPCG:  Solving for p, Initial residual = 0.696043, Final residual = 9.92275e-07, No Iterations 34
time step continuity errors : sum local = 1.85622e-12, global = 3.04782e-18, cumulative = 3.98744e-18
ExecutionTime = 0.05 s  ClockTime = 0 s

Time = 0.15

Courant Number mean: 0.78181 max: 1.92215
   Normalisation factor = 0.0130438
smoothSolver:  Solving for Ux, Initial residual = 0.00824195, Final residual = 7.97806e-06, No Iterations 29
   Normalisation factor = 1.92045e-08
smoothSolver:  Solving for Uy, Initial residual = 0.511392, Final residual = 8.68211e-06, No Iterations 39
   Normalisation factor = 1.21059e-08
DICPCG:  Solving for p, Initial residual = 0.919196, Final residual = 0.039025, No Iterations 6
time step continuity errors : sum local = 6.85647e-08, global = 2.25239e-18, cumulative = 6.23982e-18
   Normalisation factor = 1.21595e-08
DICPCG:  Solving for p, Initial residual = 0.885663, Final residual = 3.88674e-07, No Iterations 34
time step continuity errors : sum local = 4.72427e-13, global = 1.64085e-18, cumulative = 7.88067e-18
ExecutionTime = 0.05 s  ClockTime = 0 s

Time = 0.16

Courant Number mean: 0.801362 max: 1.92483
   Normalisation factor = 0.0130438
smoothSolver:  Solving for Ux, Initial residual = 0.00750182, Final residual = 9.1898e-06, No Iterations 28
   Normalisation factor = 2.9389e-08
smoothSolver:  Solving for Uy, Initial residual = 0.642399, Final residual = 9.57123e-06, No Iterations 46
   Normalisation factor = 1.48917e-08
DICPCG:  Solving for p, Initial residual = 0.913115, Final residual = 0.0454707, No Iterations 18
time step continuity errors : sum local = 6.7628e-08, global = 2.62231e-18, cumulative = 1.0503e-17
   Normalisation factor = 1.85713e-08
DICPCG:  Solving for p, Initial residual = 0.715893, Final residual = 5.85071e-07, No Iterations 34
time step continuity errors : sum local = 1.07677e-12, global = -1.68639e-19, cumulative = 1.03343e-17
ExecutionTime = 0.05 s  ClockTime = 0 s

Time = 0.17

Courant Number mean: 0.819156 max: 1.92723
   Normalisation factor = 0.0130418
smoothSolver:  Solving for Ux, Initial residual = 0.00682998, Final residual = 8.35797e-06, No Iterations 28
   Normalisation factor = 1.91088e-08
smoothSolver:  Solving for Uy, Initial residual = 0.494506, Final residual = 8.60906e-06, No Iterations 38
   Normalisation factor = 1.16918e-08
DICPCG:  Solving for p, Initial residual = 0.900948, Final residual = 0.0365044, No Iterations 6
time step continuity errors : sum local = 5.66534e-08, global = -1.02116e-18, cumulative = 9.31318e-18
   Normalisation factor = 1.15912e-08
DICPCG:  Solving for p, Initial residual = 0.894249, Final residual = 5.74915e-07, No Iterations 34
time step continuity errors : sum local = 6.69364e-13, global = 1.45163e-18, cumulative = 1.07648e-17
ExecutionTime = 0.05 s  ClockTime = 0 s

Time = 0.18

Courant Number mean: 0.835355 max: 1.92937
   Normalisation factor = 0.0130383
smoothSolver:  Solving for Ux, Initial residual = 0.00621945, Final residual = 9.63434e-06, No Iterations 27
   Normalisation factor = 2.68335e-08
smoothSolver:  Solving for Uy, Initial residual = 0.603185, Final residual = 9.10082e-06, No Iterations 46
   Normalisation factor = 1.4764e-08
DICPCG:  Solving for p, Initial residual = 0.920436, Final residual = 0.0273598, No Iterations 19
time step continuity errors : sum local = 4.00179e-08, global = -2.79916e-18, cumulative = 7.96565e-18
   Normalisation factor = 1.7679e-08
DICPCG:  Solving for p, Initial residual = 0.752426, Final residual = 8.33973e-07, No Iterations 34
time step continuity errors : sum local = 1.47531e-12, global = 1.13467e-18, cumulative = 9.10032e-18
ExecutionTime = 0.06 s  ClockTime = 0 s

Time = 0.19

Courant Number mean: 0.850098 max: 1.93128
   Normalisation factor = 0.0130337
smoothSolver:  Solving for Ux, Initial residual = 0.00566427, Final residual = 8.76634e-06, No Iterations 27
   Normalisation factor = 1.85961e-08
smoothSolver:  Solving for Uy, Initial residual = 0.456223, Final residual = 7.89688e-06, No Iterations 38
   Normalisation factor = 1.13006e-08
DICPCG:  Solving for p, Initial residual = 0.900215, Final residual = 0.0388081, No Iterations 6
time step continuity errors : sum local = 5.20334e-08, global = 3.72069e-18, cumulative = 1.2821e-17
   Normalisation factor = 1.13102e-08
DICPCG:  Solving for p, Initial residual = 0.898053, Final residual = 4.06225e-07, No Iterations 34
time step continuity errors : sum local = 4.61233e-13, global = 2.27019e-18, cumulative = 1.50912e-17
ExecutionTime = 0.06 s  ClockTime = 0 s

Time = 0.2

Courant Number mean: 0.863521 max: 1.93301
   Normalisation factor = 0.0130286
smoothSolver:  Solving for Ux, Initial residual = 0.00515896, Final residual = 7.97742e-06, No Iterations 27
   Normalisation factor = 2.46051e-08
smoothSolver:  Solving for Uy, Initial residual = 0.571868, Final residual = 8.41736e-06, No Iterations 46
   Normalisation factor = 1.18624e-08
DICPCG:  Solving for p, Initial residual = 0.903416, Final residual = 0.028045, No Iterations 19
time step continuity errors : sum local = 3.30633e-08, global = -9.79551e-19, cumulative = 1.41117e-17
   Normalisation factor = 1.39002e-08
DICPCG:  Solving for p, Initial residual = 0.760011, Final residual = 9.35922e-07, No Iterations 34
time step continuity errors : sum local = 1.30252e-12, global = 3.5663e-18, cumulative = 1.76779e-17
ExecutionTime = 0.06 s  ClockTime = 0 s

Time = 0.21

Courant Number mean: 0.875742 max: 1.93457
   Normalisation factor = 0.0130233
smoothSolver:  Solving for Ux, Initial residual = 0.00469887, Final residual = 9.20162e-06, No Iterations 26
   Normalisation factor = 1.62778e-08
smoothSolver:  Solving for Uy, Initial residual = 0.441506, Final residual = 9.55728e-06, No Iterations 37
   Normalisation factor = 1.20914e-08
DICPCG:  Solving for p, Initial residual = 0.925449, Final residual = 0.0403521, No Iterations 6
time step continuity errors : sum local = 5.33394e-08, global = -1.35366e-19, cumulative = 1.75426e-17
   Normalisation factor = 1.23623e-08
DICPCG:  Solving for p, Initial residual = 0.899616, Final residual = 3.37527e-07, No Iterations 34
time step continuity errors : sum local = 4.18917e-13, global = -1.47429e-20, cumulative = 1.75278e-17
ExecutionTime = 0.06 s  ClockTime = 0 s

Time = 0.22

Courant Number mean: 0.886864 max: 1.93598
   Normalisation factor = 0.013018
smoothSolver:  Solving for Ux, Initial residual = 0.00427999, Final residual = 8.3755e-06, No Iterations 26
   Normalisation factor = 2.26098e-08
smoothSolver:  Solving for Uy, Initial residual = 0.558213, Final residual = 9.88311e-06, No Iterations 45
   Normalisation factor = 1.18534e-08
DICPCG:  Solving for p, Initial residual = 0.896706, Final residual = 0.0286156, No Iterations 19
time step continuity errors : sum local = 3.37862e-08, global = -1.7777e-18, cumulative = 1.57501e-17
   Normalisation factor = 1.33197e-08
DICPCG:  Solving for p, Initial residual = 0.79127, Final residual = 9.58272e-07, No Iterations 34
time step continuity errors : sum local = 1.28054e-12, global = -2.49369e-18, cumulative = 1.32565e-17
ExecutionTime = 0.07 s  ClockTime = 0 s

Time = 0.23

Courant Number mean: 0.896991 max: 1.93725
   Normalisation factor = 0.0130128
smoothSolver:  Solving for Ux, Initial residual = 0.00389843, Final residual = 9.66402e-06, No Iterations 25
   Normalisation factor = 1.62013e-08
smoothSolver:  Solving for Uy, Initial residual = 0.439276, Final residual = 8.18349e-06, No Iterations 37
   Normalisation factor = 1.24548e-08
DICPCG:  Solving for p, Initial residual = 0.926033, Final residual = 0.0402132, No Iterations 6
time step continuity errors : sum local = 5.21936e-08, global = -1.32678e-18, cumulative = 1.19297e-17
   Normalisation factor = 1.27549e-08
DICPCG:  Solving for p, Initial residual = 0.90098, Final residual = 3.90351e-07, No Iterations 34
time step continuity errors : sum local = 4.99749e-13, global = 4.02294e-18, cumulative = 1.59526e-17
ExecutionTime = 0.07 s  ClockTime = 0 s

Time = 0.24

Courant Number mean: 0.906207 max: 1.9384
   Normalisation factor = 0.0130078
smoothSolver:  Solving for Ux, Initial residual = 0.00355099, Final residual = 8.79783e-06, No Iterations 25
   Normalisation factor = 2.15478e-08
smoothSolver:  Solving for Uy, Initial residual = 0.544928, Final residual = 8.97101e-06, No Iterations 45
   Normalisation factor = 1.20159e-08
DICPCG:  Solving for p, Initial residual = 0.895297, Final residual = 0.0389946, No Iterations 10
time step continuity errors : sum local = 7.1344e-08, global = 4.0647e-19, cumulative = 1.63591e-17
   Normalisation factor = 1.19986e-08
DICPCG:  Solving for p, Initial residual = 0.885719, Final residual = 6.52386e-07, No Iterations 34
time step continuity errors : sum local = 7.88443e-13, global = 2.88363e-19, cumulative = 1.66474e-17
ExecutionTime = 0.07 s  ClockTime = 0 s

Time = 0.25

Courant Number mean: 0.914598 max: 1.93945
   Normalisation factor = 0.013004
smoothSolver:  Solving for Ux, Initial residual = 0.00323424, Final residual = 8.00898e-06, No Iterations 25
   Normalisation factor = 2.89311e-08
smoothSolver:  Solving for Uy, Initial residual = 0.663291, Final residual = 9.45801e-06, No Iterations 46
   Normalisation factor = 1.21404e-08
DICPCG:  Solving for p, Initial residual = 0.897125, Final residual = 0.0406542, No Iterations 19
time step continuity errors : sum local = 4.96151e-08, global = -4.30848e-18, cumulative = 1.2339e-17
   Normalisation factor = 1.55054e-08
DICPCG:  Solving for p, Initial residual = 0.687815, Final residual = 8.32056e-07, No Iterations 35
time step continuity errors : sum local = 1.27928e-12, global = 1.51977e-18, cumulative = 1.38587e-17
ExecutionTime = 0.08 s  ClockTime = 0 s

Time = 0.26

Courant Number mean: 0.922239 max: 1.9404
   Normalisation factor = 0.0130017
smoothSolver:  Solving for Ux, Initial residual = 0.00294539, Final residual = 9.24241e-06, No Iterations 24
   Normalisation factor = 1.67013e-08
smoothSolver:  Solving for Uy, Initial residual = 0.472178, Final residual = 9.93112e-06, No Iterations 38
   Normalisation factor = 1.27423e-08
DICPCG:  Solving for p, Initial residual = 0.928895, Final residual = 0.0338801, No Iterations 6
time step continuity errors : sum local = 5.58001e-08, global = -6.24075e-19, cumulative = 1.32347e-17
   Normalisation factor = 1.29621e-08
DICPCG:  Solving for p, Initial residual = 0.890789, Final residual = 5.92513e-07, No Iterations 34
time step continuity errors : sum local = 7.72799e-13, global = -3.88037e-18, cumulative = 9.35429e-18
ExecutionTime = 0.08 s  ClockTime = 0 s

Time = 0.27

Courant Number mean: 0.929192 max: 1.94127
   Normalisation factor = 0.0129996
smoothSolver:  Solving for Ux, Initial residual = 0.00268247, Final residual = 8.41405e-06, No Iterations 24
   Normalisation factor = 2.3282e-08
smoothSolver:  Solving for Uy, Initial residual = 0.593368, Final residual = 8.02472e-06, No Iterations 46
   Normalisation factor = 1.19557e-08
DICPCG:  Solving for p, Initial residual = 0.890945, Final residual = 0.0313135, No Iterations 19
time step continuity errors : sum local = 3.76851e-08, global = -3.45523e-18, cumulative = 5.89906e-18
   Normalisation factor = 1.41908e-08
DICPCG:  Solving for p, Initial residual = 0.736726, Final residual = 6.31019e-07, No Iterations 34
time step continuity errors : sum local = 8.95256e-13, global = 4.49988e-18, cumulative = 1.03989e-17
ExecutionTime = 0.08 s  ClockTime = 0 s

Time = 0.28

Courant Number mean: 0.935523 max: 1.94205
   Normalisation factor = 0.0129994
smoothSolver:  Solving for Ux, Initial residual = 0.00244265, Final residual = 9.71121e-06, No Iterations 23
   Normalisation factor = 1.61604e-08
smoothSolver:  Solving for Uy, Initial residual = 0.468814, Final residual = 9.34465e-06, No Iterations 37
   Normalisation factor = 1.25719e-08
DICPCG:  Solving for p, Initial residual = 0.926064, Final residual = 0.0336757, No Iterations 6
time step continuity errors : sum local = 5.17891e-08, global = 1.36377e-18, cumulative = 1.17627e-17
   Normalisation factor = 1.28178e-08
DICPCG:  Solving for p, Initial residual = 0.892278, Final residual = 7.48915e-07, No Iterations 34
time step continuity errors : sum local = 9.6728e-13, global = 1.68538e-18, cumulative = 1.34481e-17
ExecutionTime = 0.08 s  ClockTime = 0 s

Time = 0.29

Courant Number mean: 0.941284 max: 1.94276
   Normalisation factor = 0.0129995
smoothSolver:  Solving for Ux, Initial residual = 0.00222437, Final residual = 8.84059e-06, No Iterations 23
   Normalisation factor = 2.03627e-08
smoothSolver:  Solving for Uy, Initial residual = 0.539092, Final residual = 7.89621e-06, No Iterations 45
   Normalisation factor = 1.19869e-08
DICPCG:  Solving for p, Initial residual = 0.893592, Final residual = 0.0314051, No Iterations 19
time step continuity errors : sum local = 3.74841e-08, global = 4.94726e-19, cumulative = 1.39428e-17
   Normalisation factor = 1.35414e-08
DICPCG:  Solving for p, Initial residual = 0.777252, Final residual = 6.03185e-07, No Iterations 34
time step continuity errors : sum local = 8.11259e-13, global = 2.83168e-18, cumulative = 1.67745e-17
ExecutionTime = 0.09 s  ClockTime = 0 s

Time = 0.3

Courant Number mean: 0.946531 max: 1.94341
   Normalisation factor = 0.0129997
smoothSolver:  Solving for Ux, Initial residual = 0.0020256, Final residual = 8.04832e-06, No Iterations 23
   Normalisation factor = 1.63679e-08
smoothSolver:  Solving for Uy, Initial residual = 0.461717, Final residual = 8.10577e-06, No Iterations 36
   Normalisation factor = 1.00193e-08
DICPCG:  Solving for p, Initial residual = 0.905104, Final residual = 0.0328484, No Iterations 6
time step continuity errors : sum local = 4.06484e-08, global = 3.3492e-18, cumulative = 2.01237e-17
   Normalisation factor = 1.00505e-08
DICPCG:  Solving for p, Initial residual = 0.892314, Final residual = 6.88431e-07, No Iterations 34
time step continuity errors : sum local = 6.96679e-13, global = -1.35844e-18, cumulative = 1.87653e-17
ExecutionTime = 0.09 s  ClockTime = 0 s

Time = 0.31

Courant Number mean: 0.951308 max: 1.944
   Normalisation factor = 0.0129998
smoothSolver:  Solving for Ux, Initial residual = 0.0018446, Final residual = 9.29165e-06, No Iterations 22
   Normalisation factor = 1.71807e-08
smoothSolver:  Solving for Uy, Initial residual = 0.508547, Final residual = 8.33414e-06, No Iterations 44
   Normalisation factor = 1.24202e-08
DICPCG:  Solving for p, Initial residual = 0.919101, Final residual = 0.0337166, No Iterations 19
time step continuity errors : sum local = 4.15243e-08, global = 2.62134e-18, cumulative = 2.13866e-17
   Normalisation factor = 1.37547e-08
DICPCG:  Solving for p, Initial residual = 0.81077, Final residual = 5.37249e-07, No Iterations 34
time step continuity errors : sum local = 7.33045e-13, global = 1.64965e-18, cumulative = 2.30362e-17
ExecutionTime = 0.09 s  ClockTime = 0 s

Time = 0.32

Courant Number mean: 0.955655 max: 1.94454
   Normalisation factor = 0.0129998
smoothSolver:  Solving for Ux, Initial residual = 0.00167993, Final residual = 8.4605e-06, No Iterations 22
   Normalisation factor = 1.62603e-08
smoothSolver:  Solving for Uy, Initial residual = 0.470797, Final residual = 9.40558e-06, No Iterations 34
   Normalisation factor = 1.03562e-08
DICPCG:  Solving for p, Initial residual = 0.900045, Final residual = 0.0321957, No Iterations 6
time step continuity errors : sum local = 4.02152e-08, global = 1.11343e-20, cumulative = 2.30474e-17
   Normalisation factor = 1.0331e-08
DICPCG:  Solving for p, Initial residual = 0.896319, Final residual = 5.26189e-07, No Iterations 34
time step continuity errors : sum local = 5.47839e-13, global = 2.56394e-18, cumulative = 2.56113e-17
ExecutionTime = 0.09 s  ClockTime = 0 s

Time = 0.33

Courant Number mean: 0.959613 max: 1.94503
   Normalisation factor = 0.0129999
smoothSolver:  Solving for Ux, Initial residual = 0.00152997, Final residual = 9.77009e-06, No Iterations 21
   Normalisation factor = 1.63503e-08
smoothSolver:  Solving for Uy, Initial residual = 0.487429, Final residual = 9.545e-06, No Iterations 42
   Normalisation factor = 1.26689e-08
DICPCG:  Solving for p, Initial residual = 0.921979, Final residual = 0.0336426, No Iterations 19
time step continuity errors : sum local = 4.23388e-08, global = 1.24505e-19, cumulative = 2.57358e-17
   Normalisation factor = 1.3734e-08
DICPCG:  Solving for p, Initial residual = 0.830744, Final residual = 5.23637e-07, No Iterations 34
time step continuity errors : sum local = 7.15099e-13, global = -3.79047e-19, cumulative = 2.53568e-17
ExecutionTime = 0.1 s  ClockTime = 0 s

Time = 0.34

Courant Number mean: 0.963214 max: 1.94547
   Normalisation factor = 0.0129999
smoothSolver:  Solving for Ux, Initial residual = 0.00139355, Final residual = 8.8977e-06, No Iterations 21
   Normalisation factor = 1.66333e-08
smoothSolver:  Solving for Uy, Initial residual = 0.470161, Final residual = 9.68016e-06, No Iterations 32
   Normalisation factor = 1.07195e-08
DICPCG:  Solving for p, Initial residual = 0.899463, Final residual = 0.0327891, No Iterations 6
time step continuity errors : sum local = 4.13866e-08, global = 3.07784e-18, cumulative = 2.84346e-17
   Normalisation factor = 1.06935e-08
DICPCG:  Solving for p, Initial residual = 0.897039, Final residual = 5.05615e-07, No Iterations 34
time step continuity errors : sum local = 5.44953e-13, global = 2.99599e-18, cumulative = 3.14306e-17
ExecutionTime = 0.1 s  ClockTime = 0 s

Time = 0.35

Courant Number mean: 0.966494 max: 1.94588
   Normalisation factor = 0.013
smoothSolver:  Solving for Ux, Initial residual = 0.0012693, Final residual = 8.10292e-06, No Iterations 21
   Normalisation factor = 1.62354e-08
smoothSolver:  Solving for Uy, Initial residual = 0.481724, Final residual = 9.96223e-06, No Iterations 39
   Normalisation factor = 1.02944e-08
DICPCG:  Solving for p, Initial residual = 0.904731, Final residual = 0.0440804, No Iterations 6
time step continuity errors : sum local = 6.35754e-08, global = -4.50108e-18, cumulative = 2.69295e-17
   Normalisation factor = 1.03073e-08
DICPCG:  Solving for p, Initial residual = 0.884434, Final residual = 6.94446e-07, No Iterations 34
time step continuity errors : sum local = 7.14703e-13, global = 8.87392e-19, cumulative = 2.78169e-17
ExecutionTime = 0.1 s  ClockTime = 0 s

Time = 0.36

Courant Number mean: 0.969481 max: 1.94624
   Normalisation factor = 0.013
smoothSolver:  Solving for Ux, Initial residual = 0.00115613, Final residual = 9.36056e-06, No Iterations 20
   Normalisation factor = 2.86917e-08
smoothSolver:  Solving for Uy, Initial residual = 0.677855, Final residual = 8.10451e-06, No Iterations 47
   Normalisation factor = 1.38172e-08
DICPCG:  Solving for p, Initial residual = 0.918128, Final residual = 0.0266675, No Iterations 19
time step continuity errors : sum local = 3.67048e-08, global = -4.67201e-18, cumulative = 2.31449e-17
   Normalisation factor = 1.74748e-08
DICPCG:  Solving for p, Initial residual = 0.70806, Final residual = 6.98012e-07, No Iterations 34
time step continuity errors : sum local = 1.21129e-12, global = 1.95078e-18, cumulative = 2.50957e-17
ExecutionTime = 0.1 s  ClockTime = 0 s

Time = 0.37

Courant Number mean: 0.972198 max: 1.94658
   Normalisation factor = 0.013
smoothSolver:  Solving for Ux, Initial residual = 0.0010532, Final residual = 8.52616e-06, No Iterations 20
   Normalisation factor = 1.63271e-08
smoothSolver:  Solving for Uy, Initial residual = 0.48328, Final residual = 8.28683e-06, No Iterations 39
   Normalisation factor = 1.01087e-08
DICPCG:  Solving for p, Initial residual = 0.897297, Final residual = 0.0430261, No Iterations 6
time step continuity errors : sum local = 5.53766e-08, global = 1.0849e-18, cumulative = 2.61806e-17
   Normalisation factor = 1.01395e-08
DICPCG:  Solving for p, Initial residual = 0.889146, Final residual = 5.66849e-07, No Iterations 34
time step continuity errors : sum local = 5.78324e-13, global = -4.31724e-19, cumulative = 2.57489e-17
ExecutionTime = 0.11 s  ClockTime = 0 s

Time = 0.38

Courant Number mean: 0.974673 max: 1.94688
   Normalisation factor = 0.013
smoothSolver:  Solving for Ux, Initial residual = 0.00095944, Final residual = 9.85219e-06, No Iterations 19
   Normalisation factor = 2.53215e-08
smoothSolver:  Solving for Uy, Initial residual = 0.635402, Final residual = 9.62033e-06, No Iterations 46
   Normalisation factor = 1.35636e-08
DICPCG:  Solving for p, Initial residual = 0.919277, Final residual = 0.0285303, No Iterations 19
time step continuity errors : sum local = 3.8322e-08, global = -1.74618e-18, cumulative = 2.40027e-17
   Normalisation factor = 1.63728e-08
DICPCG:  Solving for p, Initial residual = 0.745091, Final residual = 8.77256e-07, No Iterations 34
time step continuity errors : sum local = 1.43749e-12, global = 1.86241e-18, cumulative = 2.58651e-17
ExecutionTime = 0.12 s  ClockTime = 0 s

Time = 0.39

Courant Number mean: 0.976924 max: 1.94716
   Normalisation factor = 0.013
smoothSolver:  Solving for Ux, Initial residual = 0.000874189, Final residual = 8.97619e-06, No Iterations 19
   Normalisation factor = 1.63302e-08
smoothSolver:  Solving for Uy, Initial residual = 0.465433, Final residual = 8.6374e-06, No Iterations 38
   Normalisation factor = 1.02124e-08
DICPCG:  Solving for p, Initial residual = 0.895304, Final residual = 0.041574, No Iterations 6
time step continuity errors : sum local = 4.95885e-08, global = 1.02286e-18, cumulative = 2.68879e-17
   Normalisation factor = 1.0223e-08
DICPCG:  Solving for p, Initial residual = 0.893182, Final residual = 4.57948e-07, No Iterations 34
time step continuity errors : sum local = 4.70419e-13, global = 3.53852e-18, cumulative = 3.04265e-17
ExecutionTime = 0.12 s  ClockTime = 0 s

Time = 0.4

Courant Number mean: 0.978974 max: 1.94741
   Normalisation factor = 0.013
smoothSolver:  Solving for Ux, Initial residual = 0.000796513, Final residual = 8.17784e-06, No Iterations 19
   Normalisation factor = 2.27038e-08
smoothSolver:  Solving for Uy, Initial residual = 0.592545, Final residual = 8.77594e-06, No Iterations 46
   Normalisation factor = 1.09079e-08
DICPCG:  Solving for p, Initial residual = 0.901422, Final residual = 0.0291917, No Iterations 19
time step continuity errors : sum local = 3.16202e-08, global = -2.36526e-18, cumulative = 2.80612e-17
   Normalisation factor = 1.28547e-08
DICPCG:  Solving for p, Initial residual = 0.753811, Final residual = 6.80761e-07, No Iterations 35
time step continuity errors : sum local = 8.69963e-13, global = 4.16759e-18, cumulative = 3.22288e-17
ExecutionTime = 0.12 s  ClockTime = 0 s

Time = 0.41

Courant Number mean: 0.980843 max: 1.94764
   Normalisation factor = 0.013
smoothSolver:  Solving for Ux, Initial residual = 0.00072574, Final residual = 9.45309e-06, No Iterations 18
   Normalisation factor = 1.43405e-08
smoothSolver:  Solving for Uy, Initial residual = 0.450904, Final residual = 8.07774e-06, No Iterations 38
   Normalisation factor = 1.0884e-08
DICPCG:  Solving for p, Initial residual = 0.921061, Final residual = 0.0415379, No Iterations 6
time step continuity errors : sum local = 4.95919e-08, global = -5.9095e-18, cumulative = 2.63193e-17
   Normalisation factor = 1.11348e-08
DICPCG:  Solving for p, Initial residual = 0.895353, Final residual = 7.92841e-07, No Iterations 33
time step continuity errors : sum local = 8.84147e-13, global = 2.40164e-19, cumulative = 2.65595e-17
ExecutionTime = 0.12 s  ClockTime = 0 s

Time = 0.42

Courant Number mean: 0.982541 max: 1.94785
   Normalisation factor = 0.013
smoothSolver:  Solving for Ux, Initial residual = 0.000661412, Final residual = 8.61487e-06, No Iterations 18
   Normalisation factor = 2.06618e-08
smoothSolver:  Solving for Uy, Initial residual = 0.575115, Final residual = 8.08604e-06, No Iterations 46
   Normalisation factor = 1.08506e-08
DICPCG:  Solving for p, Initial residual = 0.89325, Final residual = 0.0294849, No Iterations 19
time step continuity errors : sum local = 3.18319e-08, global = -1.35732e-18, cumulative = 2.52021e-17
   Normalisation factor = 1.22578e-08
DICPCG:  Solving for p, Initial residual = 0.783594, Final residual = 7.50529e-07, No Iterations 35
time step continuity errors : sum local = 9.14068e-13, global = -2.44782e-18, cumulative = 2.27543e-17
ExecutionTime = 0.13 s  ClockTime = 0 s

Time = 0.43

Courant Number mean: 0.984088 max: 1.94804
   Normalisation factor = 0.013
smoothSolver:  Solving for Ux, Initial residual = 0.000602786, Final residual = 9.96231e-06, No Iterations 17
   Normalisation factor = 1.42644e-08
smoothSolver:  Solving for Uy, Initial residual = 0.445787, Final residual = 8.75074e-06, No Iterations 37
   Normalisation factor = 1.11557e-08
DICPCG:  Solving for p, Initial residual = 0.921032, Final residual = 0.040424, No Iterations 6
time step continuity errors : sum local = 4.7742e-08, global = -2.45909e-18, cumulative = 2.02952e-17
   Normalisation factor = 1.14371e-08
DICPCG:  Solving for p, Initial residual = 0.89727, Final residual = 9.95686e-07, No Iterations 32
time step continuity errors : sum local = 1.13855e-12, global = 6.80696e-19, cumulative = 2.09759e-17
ExecutionTime = 0.13 s  ClockTime = 0 s

Time = 0.44

Courant Number mean: 0.985494 max: 1.94822
   Normalisation factor = 0.013
smoothSolver:  Solving for Ux, Initial residual = 0.000549522, Final residual = 9.08186e-06, No Iterations 17
   Normalisation factor = 1.95697e-08
smoothSolver:  Solving for Uy, Initial residual = 0.561849, Final residual = 9.37821e-06, No Iterations 45
   Normalisation factor = 1.09367e-08
DICPCG:  Solving for p, Initial residual = 0.891231, Final residual = 0.0412832, No Iterations 10
time step continuity errors : sum local = 6.93813e-08, global = 2.95784e-18, cumulative = 2.39338e-17
   Normalisation factor = 1.09208e-08
DICPCG:  Solving for p, Initial residual = 0.879694, Final residual = 7.20843e-07, No Iterations 34
time step continuity errors : sum local = 7.93298e-13, global = 3.88397e-18, cumulative = 2.78177e-17
ExecutionTime = 0.13 s  ClockTime = 0 s

Time = 0.45

Courant Number mean: 0.986776 max: 1.94837
   Normalisation factor = 0.013
smoothSolver:  Solving for Ux, Initial residual = 0.000500965, Final residual = 8.27926e-06, No Iterations 17
   Normalisation factor = 2.71404e-08
smoothSolver:  Solving for Uy, Initial residual = 0.685474, Final residual = 9.72869e-06, No Iterations 46
   Normalisation factor = 1.12727e-08
DICPCG:  Solving for p, Initial residual = 0.892927, Final residual = 0.0394767, No Iterations 19
time step continuity errors : sum local = 4.47103e-08, global = -4.58865e-18, cumulative = 2.32291e-17
   Normalisation factor = 1.4642e-08
DICPCG:  Solving for p, Initial residual = 0.673211, Final residual = 7.83448e-07, No Iterations 35
time step continuity errors : sum local = 1.13825e-12, global = 1.2303e-18, cumulative = 2.44594e-17
ExecutionTime = 0.13 s  ClockTime = 0 s

Time = 0.46

Courant Number mean: 0.987945 max: 1.94852
   Normalisation factor = 0.013
smoothSolver:  Solving for Ux, Initial residual = 0.0004567, Final residual = 9.5781e-06, No Iterations 16
   Normalisation factor = 1.48695e-08
smoothSolver:  Solving for Uy, Initial residual = 0.488992, Final residual = 8.32436e-06, No Iterations 39
   Normalisation factor = 1.14837e-08
DICPCG:  Solving for p, Initial residual = 0.925155, Final residual = 0.0341843, No Iterations 6
time step continuity errors : sum local = 5.12504e-08, global = -1.97456e-18, cumulative = 2.24848e-17
   Normalisation factor = 1.16733e-08
DICPCG:  Solving for p, Initial residual = 0.886217, Final residual = 5.96402e-07, No Iterations 34
time step continuity errors : sum local = 6.99819e-13, global = 3.77454e-18, cumulative = 2.62593e-17
ExecutionTime = 0.14 s  ClockTime = 0 s

Time = 0.47

Courant Number mean: 0.989006 max: 1.94865
   Normalisation factor = 0.013
smoothSolver:  Solving for Ux, Initial residual = 0.000416505, Final residual = 8.73555e-06, No Iterations 16
   Normalisation factor = 2.14811e-08
smoothSolver:  Solving for Uy, Initial residual = 0.617103, Final residual = 8.49154e-06, No Iterations 46
   Normalisation factor = 1.0866e-08
DICPCG:  Solving for p, Initial residual = 0.886741, Final residual = 0.0286977, No Iterations 19
time step continuity errors : sum local = 3.13719e-08, global = -2.83528e-18, cumulative = 2.34241e-17
   Normalisation factor = 1.30831e-08
DICPCG:  Solving for p, Initial residual = 0.723241, Final residual = 6.90421e-07, No Iterations 34
time step continuity errors : sum local = 9.01589e-13, global = 1.99639e-19, cumulative = 2.36237e-17
ExecutionTime = 0.14 s  ClockTime = 0 s

Time = 0.48

Courant Number mean: 0.989973 max: 1.94877
   Normalisation factor = 0.013
smoothSolver:  Solving for Ux, Initial residual = 0.000379847, Final residual = 7.96658e-06, No Iterations 16
   Normalisation factor = 1.41227e-08
smoothSolver:  Solving for Uy, Initial residual = 0.477634, Final residual = 8.1596e-06, No Iterations 38
   Normalisation factor = 8.88614e-09
DICPCG:  Solving for p, Initial residual = 0.903006, Final residual = 0.0332032, No Iterations 6
time step continuity errors : sum local = 3.80956e-08, global = -6.47875e-19, cumulative = 2.29758e-17
   Normalisation factor = 8.92417e-09
DICPCG:  Solving for p, Initial residual = 0.886048, Final residual = 8.14203e-07, No Iterations 34
time step continuity errors : sum local = 7.30321e-13, global = 2.83982e-18, cumulative = 2.58156e-17
ExecutionTime = 0.14 s  ClockTime = 0 s

Time = 0.49

Courant Number mean: 0.990856 max: 1.94888
   Normalisation factor = 0.013
smoothSolver:  Solving for Ux, Initial residual = 0.000346417, Final residual = 9.22206e-06, No Iterations 15
   Normalisation factor = 1.72445e-08
smoothSolver:  Solving for Uy, Initial residual = 0.574748, Final residual = 9.70089e-06, No Iterations 45
   Normalisation factor = 1.09518e-08
DICPCG:  Solving for p, Initial residual = 0.910284, Final residual = 0.0318501, No Iterations 19
time step continuity errors : sum local = 3.49348e-08, global = -1.64728e-18, cumulative = 2.41684e-17
   Normalisation factor = 1.2735e-08
DICPCG:  Solving for p, Initial residual = 0.76543, Final residual = 7.6717e-07, No Iterations 34
time step continuity errors : sum local = 9.71941e-13, global = -7.06709e-19, cumulative = 2.34617e-17
ExecutionTime = 0.14 s  ClockTime = 0 s

Time = 0.5

Courant Number mean: 0.991657 max: 1.94897
   Normalisation factor = 0.013
smoothSolver:  Solving for Ux, Initial residual = 0.000316082, Final residual = 8.41518e-06, No Iterations 15
   Normalisation factor = 1.37128e-08
smoothSolver:  Solving for Uy, Initial residual = 0.480068, Final residual = 9.99238e-06, No Iterations 36
   Normalisation factor = 9.03352e-09
DICPCG:  Solving for p, Initial residual = 0.895681, Final residual = 0.0310393, No Iterations 6
time step continuity errors : sum local = 3.46799e-08, global = -2.03799e-18, cumulative = 2.14237e-17
   Normalisation factor = 8.99211e-09
DICPCG:  Solving for p, Initial residual = 0.892206, Final residual = 4.66421e-07, No Iterations 34
time step continuity errors : sum local = 4.22144e-13, global = -3.19148e-18, cumulative = 1.82322e-17
ExecutionTime = 0.15 s  ClockTime = 0 s

Time = 0.51

Courant Number mean: 0.992387 max: 1.94906
   Normalisation factor = 0.013
smoothSolver:  Solving for Ux, Initial residual = 0.000288404, Final residual = 9.74805e-06, No Iterations 14
   Normalisation factor = 1.50846e-08
smoothSolver:  Solving for Uy, Initial residual = 0.529783, Final residual = 9.81346e-06, No Iterations 44
   Normalisation factor = 1.08133e-08
DICPCG:  Solving for p, Initial residual = 0.912939, Final residual = 0.0323893, No Iterations 19
time step continuity errors : sum local = 3.47291e-08, global = -1.35318e-18, cumulative = 1.6879e-17
   Normalisation factor = 1.21704e-08
DICPCG:  Solving for p, Initial residual = 0.794133, Final residual = 9.50982e-07, No Iterations 34
time step continuity errors : sum local = 1.15891e-12, global = 2.021e-18, cumulative = 1.89e-17
ExecutionTime = 0.15 s  ClockTime = 0 s

Time = 0.52

Courant Number mean: 0.99305 max: 1.94915
   Normalisation factor = 0.013
smoothSolver:  Solving for Ux, Initial residual = 0.000263311, Final residual = 8.90074e-06, No Iterations 14
   Normalisation factor = 1.37447e-08
smoothSolver:  Solving for Uy, Initial residual = 0.472661, Final residual = 9.10254e-06, No Iterations 35
   Normalisation factor = 9.21155e-09
DICPCG:  Solving for p, Initial residual = 0.89383, Final residual = 0.0305837, No Iterations 6
time step continuity errors : sum local = 3.3499e-08, global = -8.41967e-19, cumulative = 1.8058e-17
   Normalisation factor = 9.16219e-09
DICPCG:  Solving for p, Initial residual = 0.894399, Final residual = 3.91543e-07, No Iterations 34
time step continuity errors : sum local = 3.60457e-13, global = -4.07049e-19, cumulative = 1.7651e-17
ExecutionTime = 0.15 s  ClockTime = 0 s

Time = 0.53

Courant Number mean: 0.993654 max: 1.94922
   Normalisation factor = 0.013
smoothSolver:  Solving for Ux, Initial residual = 0.000240403, Final residual = 8.12614e-06, No Iterations 14
   Normalisation factor = 1.39277e-08
smoothSolver:  Solving for Uy, Initial residual = 0.504638, Final residual = 9.02857e-06, No Iterations 43
   Normalisation factor = 8.74869e-09
DICPCG:  Solving for p, Initial residual = 0.895732, Final residual = 0.0318256, No Iterations 19
time step continuity errors : sum local = 2.76452e-08, global = -5.9664e-19, cumulative = 1.70544e-17
   Normalisation factor = 9.62052e-09
DICPCG:  Solving for p, Initial residual = 0.801376, Final residual = 7.50953e-07, No Iterations 35
time step continuity errors : sum local = 7.19158e-13, global = 7.83979e-19, cumulative = 1.78383e-17
ExecutionTime = 0.16 s  ClockTime = 0 s

Time = 0.54

Courant Number mean: 0.994206 max: 1.94929
   Normalisation factor = 0.013
smoothSolver:  Solving for Ux, Initial residual = 0.000219487, Final residual = 9.42142e-06, No Iterations 13
   Normalisation factor = 1.21606e-08
smoothSolver:  Solving for Uy, Initial residual = 0.458333, Final residual = 8.4537e-06, No Iterations 34
   Normalisation factor = 9.55987e-09
DICPCG:  Solving for p, Initial residual = 0.917268, Final residual = 0.0323242, No Iterations 6
time step continuity errors : sum local = 3.46531e-08, global = 1.33341e-18, cumulative = 1.91717e-17
   Normalisation factor = 9.74114e-09
DICPCG:  Solving for p, Initial residual = 0.893573, Final residual = 4.22919e-07, No Iterations 34
time step continuity errors : sum local = 4.14373e-13, global = 2.84888e-18, cumulative = 2.20206e-17
ExecutionTime = 0.16 s  ClockTime = 0 s

Time = 0.55

Courant Number mean: 0.994706 max: 1.94935
   Normalisation factor = 0.013
smoothSolver:  Solving for Ux, Initial residual = 0.000200549, Final residual = 8.60934e-06, No Iterations 13
   Normalisation factor = 1.27163e-08
smoothSolver:  Solving for Uy, Initial residual = 0.50842, Final residual = 8.16609e-06, No Iterations 41
   Normalisation factor = 8.76591e-09
DICPCG:  Solving for p, Initial residual = 0.890955, Final residual = 0.0406003, No Iterations 7
time step continuity errors : sum local = 4.90313e-08, global = -4.18442e-18, cumulative = 1.78362e-17
   Normalisation factor = 8.73518e-09
DICPCG:  Solving for p, Initial residual = 0.876583, Final residual = 9.21544e-07, No Iterations 35
time step continuity errors : sum local = 8.01732e-13, global = -3.80102e-19, cumulative = 1.74561e-17
ExecutionTime = 0.16 s  ClockTime = 0 s

Time = 0.56

Courant Number mean: 0.995163 max: 1.94941
   Normalisation factor = 0.013
smoothSolver:  Solving for Ux, Initial residual = 0.000183245, Final residual = 9.99261e-06, No Iterations 12
   Normalisation factor = 2.48031e-08
smoothSolver:  Solving for Uy, Initial residual = 0.689863, Final residual = 8.51878e-06, No Iterations 47
   Normalisation factor = 1.18077e-08
DICPCG:  Solving for p, Initial residual = 0.913094, Final residual = 0.0404365, No Iterations 18
time step continuity errors : sum local = 4.77494e-08, global = 3.61847e-18, cumulative = 2.10746e-17
   Normalisation factor = 1.49593e-08
DICPCG:  Solving for p, Initial residual = 0.699073, Final residual = 7.90241e-07, No Iterations 34
time step continuity errors : sum local = 1.17293e-12, global = 2.47242e-19, cumulative = 2.13218e-17
ExecutionTime = 0.16 s  ClockTime = 0 s

Time = 0.57

Courant Number mean: 0.995576 max: 1.94946
   Normalisation factor = 0.013
smoothSolver:  Solving for Ux, Initial residual = 0.000167601, Final residual = 9.13987e-06, No Iterations 12
   Normalisation factor = 1.31786e-08
smoothSolver:  Solving for Uy, Initial residual = 0.529933, Final residual = 8.55486e-06, No Iterations 39
   Normalisation factor = 8.96859e-09
DICPCG:  Solving for p, Initial residual = 0.887042, Final residual = 0.0413576, No Iterations 6
time step continuity errors : sum local = 4.68523e-08, global = 3.77254e-18, cumulative = 2.50943e-17
   Normalisation factor = 8.89666e-09
DICPCG:  Solving for p, Initial residual = 0.883777, Final residual = 6.25171e-07, No Iterations 34
time step continuity errors : sum local = 5.61309e-13, global = -2.8649e-18, cumulative = 2.22294e-17
ExecutionTime = 0.17 s  ClockTime = 0 s

Time = 0.58

Courant Number mean: 0.995954 max: 1.9495
   Normalisation factor = 0.013
smoothSolver:  Solving for Ux, Initial residual = 0.000153292, Final residual = 8.36043e-06, No Iterations 12
   Normalisation factor = 2.17176e-08
smoothSolver:  Solving for Uy, Initial residual = 0.647912, Final residual = 9.91732e-06, No Iterations 46
   Normalisation factor = 9.54096e-09
DICPCG:  Solving for p, Initial residual = 0.896046, Final residual = 0.0302592, No Iterations 19
time step continuity errors : sum local = 2.87041e-08, global = 4.05993e-19, cumulative = 2.26354e-17
   Normalisation factor = 1.17951e-08
DICPCG:  Solving for p, Initial residual = 0.712426, Final residual = 7.74307e-07, No Iterations 34
time step continuity errors : sum local = 9.11836e-13, global = -8.5876e-18, cumulative = 1.40478e-17
ExecutionTime = 0.17 s  ClockTime = 0 s

Time = 0.59

Courant Number mean: 0.996299 max: 1.94955
   Normalisation factor = 0.013
smoothSolver:  Solving for Ux, Initial residual = 0.000140206, Final residual = 9.71417e-06, No Iterations 11
   Normalisation factor = 1.15895e-08
smoothSolver:  Solving for Uy, Initial residual = 0.462677, Final residual = 8.47184e-06, No Iterations 39
   Normalisation factor = 8.94701e-09
DICPCG:  Solving for p, Initial residual = 0.913162, Final residual = 0.0418749, No Iterations 6
time step continuity errors : sum local = 4.47633e-08, global = -1.87844e-18, cumulative = 1.21694e-17
   Normalisation factor = 9.17767e-09
DICPCG:  Solving for p, Initial residual = 0.882797, Final residual = 5.87633e-07, No Iterations 34
time step continuity errors : sum local = 5.40529e-13, global = -9.15147e-19, cumulative = 1.12543e-17
ExecutionTime = 0.17 s  ClockTime = 0 s

Time = 0.6

Courant Number mean: 0.996611 max: 1.94958
   Normalisation factor = 0.013
smoothSolver:  Solving for Ux, Initial residual = 0.000128399, Final residual = 8.89829e-06, No Iterations 11
   Normalisation factor = 1.93128e-08
smoothSolver:  Solving for Uy, Initial residual = 0.629959, Final residual = 9.35897e-06, No Iterations 46
   Normalisation factor = 9.30875e-09
DICPCG:  Solving for p, Initial residual = 0.886318, Final residual = 0.0296076, No Iterations 19
time step continuity errors : sum local = 2.73582e-08, global = -3.02387e-19, cumulative = 1.09519e-17
   Normalisation factor = 1.09995e-08
DICPCG:  Solving for p, Initial residual = 0.739195, Final residual = 6.45018e-07, No Iterations 35
time step continuity errors : sum local = 7.0507e-13, global = -5.3948e-18, cumulative = 5.55706e-18
ExecutionTime = 0.17 s  ClockTime = 0 s

Time = 0.61

Courant Number mean: 0.996896 max: 1.94962
   Normalisation factor = 0.013
smoothSolver:  Solving for Ux, Initial residual = 0.000117587, Final residual = 8.14812e-06, No Iterations 11
   Normalisation factor = 1.13536e-08
smoothSolver:  Solving for Uy, Initial residual = 0.443199, Final residual = 9.27007e-06, No Iterations 38
   Normalisation factor = 7.28153e-09
DICPCG:  Solving for p, Initial residual = 0.893624, Final residual = 0.0419316, No Iterations 6
time step continuity errors : sum local = 3.56868e-08, global = -6.62108e-18, cumulative = -1.06401e-18
   Normalisation factor = 7.36742e-09
DICPCG:  Solving for p, Initial residual = 0.883577, Final residual = 6.39779e-07, No Iterations 34
time step continuity errors : sum local = 4.70768e-13, global = -9.95967e-19, cumulative = -2.05998e-18
ExecutionTime = 0.17 s  ClockTime = 0 s

Time = 0.62

Courant Number mean: 0.997158 max: 1.94965
   Normalisation factor = 0.013
smoothSolver:  Solving for Ux, Initial residual = 0.000107685, Final residual = 9.48422e-06, No Iterations 10
   Normalisation factor = 1.63708e-08
smoothSolver:  Solving for Uy, Initial residual = 0.61243, Final residual = 9.1204e-06, No Iterations 46
   Normalisation factor = 9.24162e-09
DICPCG:  Solving for p, Initial residual = 0.905219, Final residual = 0.0306881, No Iterations 19
time step continuity errors : sum local = 2.81115e-08, global = 1.62693e-18, cumulative = -4.33056e-19
   Normalisation factor = 1.07398e-08
DICPCG:  Solving for p, Initial residual = 0.765025, Final residual = 7.17972e-07, No Iterations 35
time step continuity errors : sum local = 7.65009e-13, global = 3.58873e-18, cumulative = 3.15567e-18
ExecutionTime = 0.18 s  ClockTime = 0 s

Time = 0.63

Courant Number mean: 0.997393 max: 1.94968
   Normalisation factor = 0.013
smoothSolver:  Solving for Ux, Initial residual = 9.87765e-05, Final residual = 8.70051e-06, No Iterations 10
   Normalisation factor = 1.09579e-08
smoothSolver:  Solving for Uy, Initial residual = 0.450541, Final residual = 7.91968e-06, No Iterations 38
   Normalisation factor = 7.34041e-09
DICPCG:  Solving for p, Initial residual = 0.885773, Final residual = 0.0387585, No Iterations 6
time step continuity errors : sum local = 3.2221e-08, global = -4.75689e-19, cumulative = 2.67998e-18
   Normalisation factor = 7.36354e-09
DICPCG:  Solving for p, Initial residual = 0.885926, Final residual = 5.89021e-07, No Iterations 34
time step continuity errors : sum local = 4.31054e-13, global = -4.41718e-18, cumulative = -1.7372e-18
ExecutionTime = 0.18 s  ClockTime = 0 s

Time = 0.64

Courant Number mean: 0.997608 max: 1.94971
   Normalisation factor = 0.013
smoothSolver:  Solving for Ux, Initial residual = 9.06045e-05, Final residual = 7.98119e-06, No Iterations 10
   Normalisation factor = 1.48456e-08
smoothSolver:  Solving for Uy, Initial residual = 0.591948, Final residual = 8.5106e-06, No Iterations 46
   Normalisation factor = 7.62044e-09
DICPCG:  Solving for p, Initial residual = 0.886043, Final residual = 0.0305621, No Iterations 19
time step continuity errors : sum local = 2.31185e-08, global = -2.45628e-18, cumulative = -4.19347e-18
   Normalisation factor = 8.73525e-09
DICPCG:  Solving for p, Initial residual = 0.765423, Final residual = 7.39785e-07, No Iterations 35
time step continuity errors : sum local = 6.41219e-13, global = -5.33077e-18, cumulative = -9.52424e-18
ExecutionTime = 0.18 s  ClockTime = 0 s

Time = 0.65

Courant Number mean: 0.997806 max: 1.94973
   Normalisation factor = 0.013
smoothSolver:  Solving for Ux, Initial residual = 8.31092e-05, Final residual = 9.3065e-06, No Iterations 9
   Normalisation factor = 9.65008e-09
smoothSolver:  Solving for Uy, Initial residual = 0.441224, Final residual = 9.70888e-06, No Iterations 37
   Normalisation factor = 7.54209e-09
DICPCG:  Solving for p, Initial residual = 0.908834, Final residual = 0.0384843, No Iterations 6
time step continuity errors : sum local = 3.23118e-08, global = 1.96206e-18, cumulative = -7.56219e-18
   Normalisation factor = 7.73672e-09
DICPCG:  Solving for p, Initial residual = 0.883433, Final residual = 6.07454e-07, No Iterations 34
time step continuity errors : sum local = 4.67015e-13, global = 2.6537e-19, cumulative = -7.29682e-18
ExecutionTime = 0.18 s  ClockTime = 0 s

Time = 0.66

Courant Number mean: 0.997984 max: 1.94975
   Normalisation factor = 0.013
smoothSolver:  Solving for Ux, Initial residual = 7.63899e-05, Final residual = 8.55658e-06, No Iterations 9
   Normalisation factor = 1.37623e-08
smoothSolver:  Solving for Uy, Initial residual = 0.590146, Final residual = 8.12144e-06, No Iterations 46
   Normalisation factor = 7.53274e-09
DICPCG:  Solving for p, Initial residual = 0.87696, Final residual = 0.0294816, No Iterations 19
time step continuity errors : sum local = 2.20558e-08, global = 2.81202e-18, cumulative = -4.4848e-18
   Normalisation factor = 8.43048e-09
DICPCG:  Solving for p, Initial residual = 0.778593, Final residual = 7.39617e-07, No Iterations 35
time step continuity errors : sum local = 6.19066e-13, global = -2.70322e-18, cumulative = -7.18802e-18
ExecutionTime = 0.19 s  ClockTime = 0 s

Time = 0.67

Courant Number mean: 0.998147 max: 1.94977
   Normalisation factor = 0.013
smoothSolver:  Solving for Ux, Initial residual = 7.02138e-05, Final residual = 7.8638e-06, No Iterations 9
   Normalisation factor = 9.39582e-09
smoothSolver:  Solving for Uy, Initial residual = 0.433073, Final residual = 8.92025e-06, No Iterations 37
   Normalisation factor = 6.25803e-09
DICPCG:  Solving for p, Initial residual = 0.889856, Final residual = 0.0379993, No Iterations 6
time step continuity errors : sum local = 2.64591e-08, global = -3.27454e-19, cumulative = -7.51547e-18
   Normalisation factor = 6.32007e-09
DICPCG:  Solving for p, Initial residual = 0.884831, Final residual = 6.43768e-07, No Iterations 34
time step continuity errors : sum local = 4.04301e-13, global = -4.44392e-18, cumulative = -1.19594e-17
ExecutionTime = 0.19 s  ClockTime = 0 s

Time = 0.68

Courant Number mean: 0.998297 max: 1.94979
   Normalisation factor = 0.013
smoothSolver:  Solving for Ux, Initial residual = 6.45375e-05, Final residual = 9.19365e-06, No Iterations 8
   Normalisation factor = 1.20988e-08
smoothSolver:  Solving for Uy, Initial residual = 0.583102, Final residual = 8.07202e-06, No Iterations 46
   Normalisation factor = 7.52065e-09
DICPCG:  Solving for p, Initial residual = 0.897346, Final residual = 0.04113, No Iterations 10
time step continuity errors : sum local = 4.83124e-08, global = -2.90677e-18, cumulative = -1.48662e-17
   Normalisation factor = 7.61869e-09
DICPCG:  Solving for p, Initial residual = 0.864131, Final residual = 7.0464e-07, No Iterations 34
time step continuity errors : sum local = 5.39992e-13, global = 1.14191e-18, cumulative = -1.37243e-17
ExecutionTime = 0.19 s  ClockTime = 0 s

Time = 0.69

Courant Number mean: 0.99843 max: 1.94981
   Normalisation factor = 0.013
smoothSolver:  Solving for Ux, Initial residual = 5.94746e-05, Final residual = 8.47352e-06, No Iterations 8
   Normalisation factor = 1.82959e-08
smoothSolver:  Solving for Uy, Initial residual = 0.710662, Final residual = 8.01449e-06, No Iterations 47
   Normalisation factor = 7.88325e-09
DICPCG:  Solving for p, Initial residual = 0.876623, Final residual = 0.0283175, No Iterations 19
time step continuity errors : sum local = 2.24051e-08, global = -2.05426e-18, cumulative = -1.57785e-17
   Normalisation factor = 1.03559e-08
DICPCG:  Solving for p, Initial residual = 0.656343, Final residual = 9.29543e-07, No Iterations 34
time step continuity errors : sum local = 9.58742e-13, global = 3.20051e-18, cumulative = -1.2578e-17
ExecutionTime = 0.19 s  ClockTime = 0 s

Time = 0.7

Courant Number mean: 0.998553 max: 1.94982
   Normalisation factor = 0.013
smoothSolver:  Solving for Ux, Initial residual = 5.48085e-05, Final residual = 9.93407e-06, No Iterations 7
   Normalisation factor = 9.4828e-09
smoothSolver:  Solving for Uy, Initial residual = 0.511086, Final residual = 9.40983e-06, No Iterations 39
   Normalisation factor = 7.42211e-09
DICPCG:  Solving for p, Initial residual = 0.906526, Final residual = 0.0352012, No Iterations 6
time step continuity errors : sum local = 3.4001e-08, global = 1.54406e-18, cumulative = -1.10339e-17
   Normalisation factor = 7.55626e-09
DICPCG:  Solving for p, Initial residual = 0.86821, Final residual = 8.91405e-07, No Iterations 34
time step continuity errors : sum local = 6.71852e-13, global = -3.45081e-18, cumulative = -1.44847e-17
ExecutionTime = 0.2 s  ClockTime = 0 s

Time = 0.71

Courant Number mean: 0.998662 max: 1.94984
   Normalisation factor = 0.013
smoothSolver:  Solving for Ux, Initial residual = 5.0676e-05, Final residual = 9.18807e-06, No Iterations 7
   Normalisation factor = 1.44418e-08
smoothSolver:  Solving for Uy, Initial residual = 0.649984, Final residual = 9.28058e-06, No Iterations 46
   Normalisation factor = 7.24285e-09
DICPCG:  Solving for p, Initial residual = 0.872336, Final residual = 0.0388465, No Iterations 18
time step continuity errors : sum local = 2.80855e-08, global = 2.37269e-18, cumulative = -1.21121e-17
   Normalisation factor = 8.92268e-09
DICPCG:  Solving for p, Initial residual = 0.701696, Final residual = 7.34284e-07, No Iterations 35
time step continuity errors : sum local = 6.56016e-13, global = 1.48877e-18, cumulative = -1.06233e-17
ExecutionTime = 0.2 s  ClockTime = 0 s

Time = 0.72

Courant Number mean: 0.998763 max: 1.94985
   Normalisation factor = 0.013
smoothSolver:  Solving for Ux, Initial residual = 4.68549e-05, Final residual = 8.49444e-06, No Iterations 7
   Normalisation factor = 8.75211e-09
smoothSolver:  Solving for Uy, Initial residual = 0.509064, Final residual = 8.61483e-06, No Iterations 39
   Normalisation factor = 6.16934e-09
DICPCG:  Solving for p, Initial residual = 0.885701, Final residual = 0.0334953, No Iterations 6
time step continuity errors : sum local = 2.59667e-08, global = 3.49324e-18, cumulative = -7.13005e-18
   Normalisation factor = 6.17471e-09
DICPCG:  Solving for p, Initial residual = 0.87472, Final residual = 8.92851e-07, No Iterations 34
time step continuity errors : sum local = 5.49918e-13, global = -3.52747e-18, cumulative = -1.06575e-17
ExecutionTime = 0.2 s  ClockTime = 0 s

Time = 0.73

Courant Number mean: 0.998857 max: 1.94986
   Normalisation factor = 0.013
smoothSolver:  Solving for Ux, Initial residual = 4.33224e-05, Final residual = 9.99856e-06, No Iterations 6
   Normalisation factor = 1.19073e-08
smoothSolver:  Solving for Uy, Initial residual = 0.616647, Final residual = 8.85935e-06, No Iterations 46
   Normalisation factor = 6.86211e-09
DICPCG:  Solving for p, Initial residual = 0.888989, Final residual = 0.0442539, No Iterations 18
time step continuity errors : sum local = 3.04266e-08, global = 7.18054e-18, cumulative = -3.47698e-18
   Normalisation factor = 8.30911e-09
DICPCG:  Solving for p, Initial residual = 0.727867, Final residual = 7.65572e-07, No Iterations 35
time step continuity errors : sum local = 6.35149e-13, global = -2.06962e-18, cumulative = -5.5466e-18
ExecutionTime = 0.2 s  ClockTime = 0 s

Time = 0.74

Courant Number mean: 0.998938 max: 1.94987
   Normalisation factor = 0.013
smoothSolver:  Solving for Ux, Initial residual = 4.02251e-05, Final residual = 9.28443e-06, No Iterations 6
   Normalisation factor = 8.18219e-09
smoothSolver:  Solving for Uy, Initial residual = 0.506826, Final residual = 9.67773e-06, No Iterations 38
   Normalisation factor = 6.11507e-09
DICPCG:  Solving for p, Initial residual = 0.874671, Final residual = 0.0315976, No Iterations 6
time step continuity errors : sum local = 2.32059e-08, global = -4.17108e-18, cumulative = -9.71768e-18
   Normalisation factor = 6.06541e-09
DICPCG:  Solving for p, Initial residual = 0.875314, Final residual = 6.72683e-07, No Iterations 34
time step continuity errors : sum local = 4.08245e-13, global = -2.32369e-18, cumulative = -1.20414e-17
ExecutionTime = 0.21 s  ClockTime = 0 s

Time = 0.75

Courant Number mean: 0.999014 max: 1.94988
   Normalisation factor = 0.013
smoothSolver:  Solving for Ux, Initial residual = 3.73488e-05, Final residual = 8.62205e-06, No Iterations 6
   Normalisation factor = 1.02028e-08
smoothSolver:  Solving for Uy, Initial residual = 0.576676, Final residual = 7.93576e-06, No Iterations 46
   Normalisation factor = 5.72592e-09
DICPCG:  Solving for p, Initial residual = 0.871429, Final residual = 0.0288219, No Iterations 19
time step continuity errors : sum local = 1.63561e-08, global = -1.98905e-18, cumulative = -1.40304e-17
   Normalisation factor = 6.71675e-09
DICPCG:  Solving for p, Initial residual = 0.73695, Final residual = 9.04186e-07, No Iterations 35
time step continuity errors : sum local = 6.08049e-13, global = 6.8554e-19, cumulative = -1.33449e-17
ExecutionTime = 0.21 s  ClockTime = 0 s

Time = 0.76

Courant Number mean: 0.999085 max: 1.94989
   Normalisation factor = 0.013
smoothSolver:  Solving for Ux, Initial residual = 3.46786e-05, Final residual = 8.00439e-06, No Iterations 6
   Normalisation factor = 7.20954e-09
smoothSolver:  Solving for Uy, Initial residual = 0.457723, Final residual = 9.21925e-06, No Iterations 37
   Normalisation factor = 5.14144e-09
DICPCG:  Solving for p, Initial residual = 0.876698, Final residual = 0.0309666, No Iterations 6
time step continuity errors : sum local = 1.83631e-08, global = -2.52113e-18, cumulative = -1.5866e-17
   Normalisation factor = 5.13331e-09
DICPCG:  Solving for p, Initial residual = 0.874258, Final residual = 3.99066e-07, No Iterations 34
time step continuity errors : sum local = 2.04106e-13, global = 7.95819e-19, cumulative = -1.50702e-17
ExecutionTime = 0.21 s  ClockTime = 0 s

Time = 0.77

Courant Number mean: 0.99915 max: 1.9499
   Normalisation factor = 0.013
smoothSolver:  Solving for Ux, Initial residual = 3.21995e-05, Final residual = 9.46711e-06, No Iterations 5
   Normalisation factor = 7.94806e-09
smoothSolver:  Solving for Uy, Initial residual = 0.54487, Final residual = 8.44212e-06, No Iterations 45
   Normalisation factor = 5.41512e-09
DICPCG:  Solving for p, Initial residual = 0.883149, Final residual = 0.0264883, No Iterations 19
time step continuity errors : sum local = 1.42607e-08, global = 2.59436e-18, cumulative = -1.24758e-17
   Normalisation factor = 6.15936e-09
DICPCG:  Solving for p, Initial residual = 0.766227, Final residual = 9.16145e-07, No Iterations 35
time step continuity errors : sum local = 5.65135e-13, global = -2.24476e-18, cumulative = -1.47206e-17
ExecutionTime = 0.21 s  ClockTime = 0 s

Time = 0.78

Courant Number mean: 0.999207 max: 1.9499
   Normalisation factor = 0.013
smoothSolver:  Solving for Ux, Initial residual = 3.0058e-05, Final residual = 8.83788e-06, No Iterations 5
   Normalisation factor = 6.63438e-09
smoothSolver:  Solving for Uy, Initial residual = 0.446234, Final residual = 8.87788e-06, No Iterations 36
   Normalisation factor = 4.93129e-09
DICPCG:  Solving for p, Initial residual = 0.862889, Final residual = 0.0304639, No Iterations 6
time step continuity errors : sum local = 1.63574e-08, global = 1.47008e-19, cumulative = -1.45736e-17
   Normalisation factor = 4.90515e-09
DICPCG:  Solving for p, Initial residual = 0.869924, Final residual = 3.97081e-07, No Iterations 34
time step continuity errors : sum local = 1.93481e-13, global = -1.25312e-19, cumulative = -1.46989e-17
ExecutionTime = 0.22 s  ClockTime = 0 s

Time = 0.79

Courant Number mean: 0.999259 max: 1.94991
   Normalisation factor = 0.013
smoothSolver:  Solving for Ux, Initial residual = 2.80582e-05, Final residual = 8.25096e-06, No Iterations 5
   Normalisation factor = 6.66578e-09
smoothSolver:  Solving for Uy, Initial residual = 0.530754, Final residual = 7.94853e-06, No Iterations 44
   Normalisation factor = 4.59883e-09
DICPCG:  Solving for p, Initial residual = 0.866738, Final residual = 0.036142, No Iterations 10
time step continuity errors : sum local = 2.51148e-08, global = -3.53953e-18, cumulative = -1.82384e-17
   Normalisation factor = 4.64478e-09
DICPCG:  Solving for p, Initial residual = 0.849508, Final residual = 8.71069e-07, No Iterations 35
time step continuity errors : sum local = 4.05599e-13, global = 1.40033e-18, cumulative = -1.68381e-17
ExecutionTime = 0.22 s  ClockTime = 0 s

Time = 0.8

Courant Number mean: 0.999309 max: 1.94992
   Normalisation factor = 0.013
smoothSolver:  Solving for Ux, Initial residual = 2.61918e-05, Final residual = 9.81722e-06, No Iterations 4
   Normalisation factor = 9.82599e-09
smoothSolver:  Solving for Uy, Initial residual = 0.640902, Final residual = 8.77769e-06, No Iterations 46
   Normalisation factor = 5.50527e-09
DICPCG:  Solving for p, Initial residual = 0.876698, Final residual = 0.0433172, No Iterations 18
time step continuity errors : sum local = 2.35426e-08, global = 7.20352e-19, cumulative = -1.61177e-17
   Normalisation factor = 6.72977e-09
DICPCG:  Solving for p, Initial residual = 0.695372, Final residual = 9.40526e-07, No Iterations 34
time step continuity errors : sum local = 6.33733e-13, global = 6.98199e-20, cumulative = -1.60479e-17
ExecutionTime = 0.22 s  ClockTime = 0 s

Time = 0.81

Courant Number mean: 0.99935 max: 1.94992
   Normalisation factor = 0.013
smoothSolver:  Solving for Ux, Initial residual = 2.46168e-05, Final residual = 9.22403e-06, No Iterations 4
   Normalisation factor = 6.20962e-09
smoothSolver:  Solving for Uy, Initial residual = 0.504594, Final residual = 8.85375e-06, No Iterations 38
   Normalisation factor = 4.68248e-09
DICPCG:  Solving for p, Initial residual = 0.865645, Final residual = 0.0381893, No Iterations 6
time step continuity errors : sum local = 2.48829e-08, global = -5.65971e-18, cumulative = -2.17076e-17
   Normalisation factor = 4.65622e-09
DICPCG:  Solving for p, Initial residual = 0.849742, Final residual = 7.33187e-07, No Iterations 35
time step continuity errors : sum local = 3.42287e-13, global = 1.07412e-18, cumulative = -2.06335e-17
ExecutionTime = 0.22 s  ClockTime = 0 s

Time = 0.82

Courant Number mean: 0.999389 max: 1.94993
   Normalisation factor = 0.013
smoothSolver:  Solving for Ux, Initial residual = 2.3135e-05, Final residual = 8.67265e-06, No Iterations 4
   Normalisation factor = 9.59973e-09
smoothSolver:  Solving for Uy, Initial residual = 0.642554, Final residual = 9.05724e-06, No Iterations 46
   Normalisation factor = 4.9012e-09
DICPCG:  Solving for p, Initial residual = 0.861988, Final residual = 0.0285035, No Iterations 19
time step continuity errors : sum local = 1.39811e-08, global = -1.06982e-18, cumulative = -2.17033e-17
   Normalisation factor = 5.91924e-09
DICPCG:  Solving for p, Initial residual = 0.701377, Final residual = 7.73568e-07, No Iterations 34
time step continuity errors : sum local = 4.5472e-13, global = 6.34252e-19, cumulative = -2.10691e-17
ExecutionTime = 0.23 s  ClockTime = 0 s

Time = 0.83

Courant Number mean: 0.999426 max: 1.94993
   Normalisation factor = 0.013
smoothSolver:  Solving for Ux, Initial residual = 2.17432e-05, Final residual = 8.14758e-06, No Iterations 4
   Normalisation factor = 5.50697e-09
smoothSolver:  Solving for Uy, Initial residual = 0.444322, Final residual = 9.66763e-06, No Iterations 38
   Normalisation factor = 3.94134e-09
DICPCG:  Solving for p, Initial residual = 0.864114, Final residual = 0.0388313, No Iterations 6
time step continuity errors : sum local = 2.02271e-08, global = -5.30914e-18, cumulative = -2.63782e-17
   Normalisation factor = 3.96632e-09
DICPCG:  Solving for p, Initial residual = 0.84696, Final residual = 9.59075e-07, No Iterations 34
time step continuity errors : sum local = 3.77865e-13, global = 1.21472e-18, cumulative = -2.51635e-17
ExecutionTime = 0.23 s  ClockTime = 0 s

Time = 0.84

Courant Number mean: 0.999461 max: 1.94993
   Normalisation factor = 0.013
smoothSolver:  Solving for Ux, Initial residual = 2.04347e-05, Final residual = 9.76888e-06, No Iterations 3
   Normalisation factor = 8.6012e-09
smoothSolver:  Solving for Uy, Initial residual = 0.647882, Final residual = 9.37506e-06, No Iterations 46
   Normalisation factor = 4.48267e-09
DICPCG:  Solving for p, Initial residual = 0.866905, Final residual = 0.0379798, No Iterations 18
time step continuity errors : sum local = 1.6978e-08, global = 1.07075e-18, cumulative = -2.40927e-17
   Normalisation factor = 5.3608e-09
DICPCG:  Solving for p, Initial residual = 0.705817, Final residual = 9.73006e-07, No Iterations 34
time step continuity errors : sum local = 5.20356e-13, global = 1.76395e-18, cumulative = -2.23288e-17
ExecutionTime = 0.23 s  ClockTime = 0 s

Time = 0.85

Courant Number mean: 0.999489 max: 1.94994
   Normalisation factor = 0.013
smoothSolver:  Solving for Ux, Initial residual = 1.93725e-05, Final residual = 9.25836e-06, No Iterations 3
   Normalisation factor = 4.91157e-09
smoothSolver:  Solving for Uy, Initial residual = 0.429581, Final residual = 9.75066e-06, No Iterations 38
   Normalisation factor = 3.6994e-09
DICPCG:  Solving for p, Initial residual = 0.849895, Final residual = 0.0383464, No Iterations 6
time step continuity errors : sum local = 1.77329e-08, global = -2.39857e-19, cumulative = -2.25686e-17
   Normalisation factor = 3.6865e-09
DICPCG:  Solving for p, Initial residual = 0.840262, Final residual = 9.87296e-07, No Iterations 34
time step continuity errors : sum local = 3.63101e-13, global = 1.20634e-18, cumulative = -2.13623e-17
ExecutionTime = 0.23 s  ClockTime = 0 s

Time = 0.86

Courant Number mean: 0.999515 max: 1.94994
   Normalisation factor = 0.013
smoothSolver:  Solving for Ux, Initial residual = 1.83636e-05, Final residual = 8.77848e-06, No Iterations 3
   Normalisation factor = 7.73766e-09
smoothSolver:  Solving for Uy, Initial residual = 0.642457, Final residual = 9.50517e-06, No Iterations 46
   Normalisation factor = 4.04401e-09
DICPCG:  Solving for p, Initial residual = 0.857209, Final residual = 0.0390181, No Iterations 18
time step continuity errors : sum local = 1.58165e-08, global = 1.81627e-18, cumulative = -1.9546e-17
   Normalisation factor = 4.74848e-09
DICPCG:  Solving for p, Initial residual = 0.713708, Final residual = 8.59145e-07, No Iterations 34
time step continuity errors : sum local = 4.07125e-13, global = 3.20478e-19, cumulative = -1.92256e-17
ExecutionTime = 0.24 s  ClockTime = 0 s

Time = 0.87

Courant Number mean: 0.999541 max: 1.94994
   Normalisation factor = 0.013
smoothSolver:  Solving for Ux, Initial residual = 1.74079e-05, Final residual = 8.3195e-06, No Iterations 3
   Normalisation factor = 4.43822e-09
smoothSolver:  Solving for Uy, Initial residual = 0.421476, Final residual = 9.44677e-06, No Iterations 38
   Normalisation factor = 3.30631e-09
DICPCG:  Solving for p, Initial residual = 0.852993, Final residual = 0.0394601, No Iterations 6
time step continuity errors : sum local = 1.55112e-08, global = 4.23543e-19, cumulative = -1.8802e-17
   Normalisation factor = 3.30425e-09
DICPCG:  Solving for p, Initial residual = 0.842746, Final residual = 9.17195e-07, No Iterations 34
time step continuity errors : sum local = 3.02273e-13, global = 2.85384e-18, cumulative = -1.59482e-17
ExecutionTime = 0.24 s  ClockTime = 0 s

Time = 0.88

Courant Number mean: 0.999564 max: 1.94995
   Normalisation factor = 0.013
smoothSolver:  Solving for Ux, Initial residual = 1.65015e-05, Final residual = 7.88825e-06, No Iterations 3
   Normalisation factor = 6.78483e-09
smoothSolver:  Solving for Uy, Initial residual = 0.634586, Final residual = 9.46722e-06, No Iterations 46
   Normalisation factor = 3.59551e-09
DICPCG:  Solving for p, Initial residual = 0.856072, Final residual = 0.0393979, No Iterations 18
time step continuity errors : sum local = 1.42333e-08, global = -2.90645e-18, cumulative = -1.88546e-17
   Normalisation factor = 4.1665e-09
DICPCG:  Solving for p, Initial residual = 0.723316, Final residual = 8.1805e-07, No Iterations 34
time step continuity errors : sum local = 3.39617e-13, global = 2.87265e-18, cumulative = -1.5982e-17
ExecutionTime = 0.24 s  ClockTime = 0 s

Time = 0.89

Courant Number mean: 0.999587 max: 1.94995
   Normalisation factor = 0.013
smoothSolver:  Solving for Ux, Initial residual = 1.56428e-05, Final residual = 9.54395e-06, No Iterations 2
   Normalisation factor = 3.99533e-09
smoothSolver:  Solving for Uy, Initial residual = 0.417515, Final residual = 9.17713e-06, No Iterations 38
   Normalisation factor = 2.77737e-09
DICPCG:  Solving for p, Initial residual = 0.844067, Final residual = 0.04196, No Iterations 6
time step continuity errors : sum local = 1.33539e-08, global = -1.88716e-18, cumulative = -1.78691e-17
   Normalisation factor = 2.79161e-09
DICPCG:  Solving for p, Initial residual = 0.829945, Final residual = 6.86202e-07, No Iterations 34
time step continuity errors : sum local = 1.907e-13, global = 4.06004e-19, cumulative = -1.74631e-17
ExecutionTime = 0.24 s  ClockTime = 0 s

Time = 0.9

Courant Number mean: 0.999604 max: 1.94995
   Normalisation factor = 0.013
smoothSolver:  Solving for Ux, Initial residual = 1.49927e-05, Final residual = 9.14734e-06, No Iterations 2
   Normalisation factor = 5.84402e-09
smoothSolver:  Solving for Uy, Initial residual = 0.630212, Final residual = 9.51147e-06, No Iterations 46
   Normalisation factor = 3.1292e-09
DICPCG:  Solving for p, Initial residual = 0.845229, Final residual = 0.0361663, No Iterations 18
time step continuity errors : sum local = 1.13652e-08, global = 9.61943e-19, cumulative = -1.65012e-17
   Normalisation factor = 3.58082e-09
DICPCG:  Solving for p, Initial residual = 0.722629, Final residual = 8.70948e-07, No Iterations 34
time step continuity errors : sum local = 3.10429e-13, global = -3.38447e-18, cumulative = -1.98857e-17
ExecutionTime = 0.25 s  ClockTime = 0 s

Time = 0.91

Courant Number mean: 0.999621 max: 1.94995
   Normalisation factor = 0.013
smoothSolver:  Solving for Ux, Initial residual = 1.43682e-05, Final residual = 8.76505e-06, No Iterations 2
   Normalisation factor = 3.40621e-09
smoothSolver:  Solving for Uy, Initial residual = 0.407925, Final residual = 9.59945e-06, No Iterations 38
   Normalisation factor = 2.54342e-09
DICPCG:  Solving for p, Initial residual = 0.837794, Final residual = 0.0407337, No Iterations 6
time step continuity errors : sum local = 1.16878e-08, global = 1.87618e-18, cumulative = -1.80095e-17
   Normalisation factor = 2.547e-09
DICPCG:  Solving for p, Initial residual = 0.83178, Final residual = 7.79444e-07, No Iterations 34
time step continuity errors : sum local = 1.97896e-13, global = 3.76222e-18, cumulative = -1.42473e-17
ExecutionTime = 0.25 s  ClockTime = 0 s

Time = 0.92

Courant Number mean: 0.999637 max: 1.94996
   Normalisation factor = 0.013
smoothSolver:  Solving for Ux, Initial residual = 1.37693e-05, Final residual = 8.40083e-06, No Iterations 2
   Normalisation factor = 5.08781e-09
smoothSolver:  Solving for Uy, Initial residual = 0.628781, Final residual = 9.41648e-06, No Iterations 46
   Normalisation factor = 2.82924e-09
[...]
time step continuity errors : sum local = 7.12272e-17, global = -1.21134e-18, cumulative = -7.37762e-17
ExecutionTime = 0.47 s  ClockTime = 0 s

Time = 1.78

Courant Number mean: 0.999889 max: 1.94999
   Normalisation factor = 0.013
smoothSolver:  Solving for Ux, Initial residual = 4.20412e-06, Final residual = 4.20412e-06, No Iterations 0
   Normalisation factor = 9.72212e-18
smoothSolver:  Solving for Uy, Initial residual = 0.590199, Final residual = 9.90142e-06, No Iterations 45
   Normalisation factor = 3.59581e-18
DICPCG:  Solving for p, Initial residual = 0.740503, Final residual = 0.0204527, No Iterations 19
time step continuity errors : sum local = 7.53904e-17, global = 1.73979e-18, cumulative = -7.20364e-17
   Normalisation factor = 4.28489e-18
DICPCG:  Solving for p, Initial residual = 0.563756, Final residual = 6.99455e-07, No Iterations 34
time step continuity errors : sum local = 7.31108e-17, global = 9.9931e-19, cumulative = -7.1037e-17
ExecutionTime = 0.47 s  ClockTime = 0 s

Time = 1.79

Courant Number mean: 0.999891 max: 1.94999
   Normalisation factor = 0.013
smoothSolver:  Solving for Ux, Initial residual = 4.15699e-06, Final residual = 4.15699e-06, No Iterations 0
   Normalisation factor = 8.09875e-18
smoothSolver:  Solving for Uy, Initial residual = 0.479286, Final residual = 7.98053e-06, No Iterations 42
   Normalisation factor = 3.14063e-18
DICPCG:  Solving for p, Initial residual = 0.752346, Final residual = 0.0348682, No Iterations 18
time step continuity errors : sum local = 7.82172e-17, global = 3.51496e-19, cumulative = -7.06856e-17
   Normalisation factor = 3.80174e-18
DICPCG:  Solving for p, Initial residual = 0.570948, Final residual = 8.76462e-07, No Iterations 34
time step continuity errors : sum local = 7.12463e-17, global = -1.57532e-18, cumulative = -7.22609e-17
ExecutionTime = 0.48 s  ClockTime = 0 s

Time = 1.8

Courant Number mean: 0.999892 max: 1.94999
   Normalisation factor = 0.013
smoothSolver:  Solving for Ux, Initial residual = 4.11039e-06, Final residual = 4.11039e-06, No Iterations 0
   Normalisation factor = 1.16618e-17
smoothSolver:  Solving for Uy, Initial residual = 0.712013, Final residual = 8.92354e-06, No Iterations 47
   Normalisation factor = 3.85408e-18
DICPCG:  Solving for p, Initial residual = 0.729992, Final residual = 0.0162088, No Iterations 18
time step continuity errors : sum local = 8.02808e-17, global = 4.59267e-19, cumulative = -7.18016e-17
   Normalisation factor = 5.18912e-18
DICPCG:  Solving for p, Initial residual = 0.527141, Final residual = 5.43657e-07, No Iterations 34
time step continuity errors : sum local = 7.57693e-17, global = 1.07757e-18, cumulative = -7.0724e-17
ExecutionTime = 0.48 s  ClockTime = 0 s

Time = 1.81

Courant Number mean: 0.999893 max: 1.94999
   Normalisation factor = 0.013
smoothSolver:  Solving for Ux, Initial residual = 4.06432e-06, Final residual = 4.06432e-06, No Iterations 0
   Normalisation factor = 6.58993e-18
smoothSolver:  Solving for Uy, Initial residual = 0.391757, Final residual = 9.51137e-06, No Iterations 41
   Normalisation factor = 2.73095e-18
DICPCG:  Solving for p, Initial residual = 0.708126, Final residual = 0.0179738, No Iterations 10
time step continuity errors : sum local = 7.47462e-17, global = 8.28378e-19, cumulative = -6.98957e-17
   Normalisation factor = 2.76631e-18
DICPCG:  Solving for p, Initial residual = 0.668503, Final residual = 6.80867e-07, No Iterations 34
time step continuity errors : sum local = 7.32185e-17, global = -2.27599e-18, cumulative = -7.21717e-17
ExecutionTime = 0.48 s  ClockTime = 0 s

Time = 1.82

Courant Number mean: 0.999894 max: 1.94999
   Normalisation factor = 0.013
smoothSolver:  Solving for Ux, Initial residual = 4.01876e-06, Final residual = 4.01876e-06, No Iterations 0
   Normalisation factor = 7.94522e-18
smoothSolver:  Solving for Uy, Initial residual = 0.516181, Final residual = 8.50767e-06, No Iterations 45
   Normalisation factor = 3.04319e-18
DICPCG:  Solving for p, Initial residual = 0.74692, Final residual = 0.0287961, No Iterations 18
time step continuity errors : sum local = 7.73705e-17, global = -3.10512e-18, cumulative = -7.52768e-17
   Normalisation factor = 3.72909e-18
DICPCG:  Solving for p, Initial residual = 0.568526, Final residual = 7.32888e-07, No Iterations 34
time step continuity errors : sum local = 7.49341e-17, global = 8.95164e-20, cumulative = -7.51873e-17
ExecutionTime = 0.48 s  ClockTime = 0 s

Time = 1.83

Courant Number mean: 0.999895 max: 1.94999
   Normalisation factor = 0.013
smoothSolver:  Solving for Ux, Initial residual = 3.97371e-06, Final residual = 3.97371e-06, No Iterations 0
   Normalisation factor = 9.48054e-18
smoothSolver:  Solving for Uy, Initial residual = 0.657682, Final residual = 9.82228e-06, No Iterations 46
   Normalisation factor = 3.49231e-18
DICPCG:  Solving for p, Initial residual = 0.730366, Final residual = 0.035617, No Iterations 18
time step continuity errors : sum local = 7.43718e-17, global = 3.55653e-18, cumulative = -7.16307e-17
   Normalisation factor = 4.42869e-18
DICPCG:  Solving for p, Initial residual = 0.536819, Final residual = 6.2442e-07, No Iterations 34
time step continuity errors : sum local = 6.85839e-17, global = -1.19577e-18, cumulative = -7.28265e-17
ExecutionTime = 0.49 s  ClockTime = 0 s

Time = 1.84

Courant Number mean: 0.999897 max: 1.94999
   Normalisation factor = 0.013
smoothSolver:  Solving for Ux, Initial residual = 3.92916e-06, Final residual = 3.92916e-06, No Iterations 0
   Normalisation factor = 6.47177e-18
smoothSolver:  Solving for Uy, Initial residual = 0.359382, Final residual = 8.50289e-06, No Iterations 39
   Normalisation factor = 2.50499e-18
DICPCG:  Solving for p, Initial residual = 0.674389, Final residual = 0.0260461, No Iterations 18
time step continuity errors : sum local = 7.26279e-17, global = -8.71248e-19, cumulative = -7.36977e-17
   Normalisation factor = 2.50949e-18
DICPCG:  Solving for p, Initial residual = 0.58103, Final residual = 8.49406e-07, No Iterations 33
time step continuity errors : sum local = 7.10991e-17, global = -1.02616e-18, cumulative = -7.47239e-17
ExecutionTime = 0.49 s  ClockTime = 0 s

Time = 1.85

Courant Number mean: 0.999898 max: 1.94999
   Normalisation factor = 0.013
smoothSolver:  Solving for Ux, Initial residual = 3.88512e-06, Final residual = 3.88512e-06, No Iterations 0
   Normalisation factor = 8.38859e-18
smoothSolver:  Solving for Uy, Initial residual = 0.531381, Final residual = 8.00043e-06, No Iterations 45
   Normalisation factor = 3.08001e-18
DICPCG:  Solving for p, Initial residual = 0.705241, Final residual = 0.0325895, No Iterations 18
time step continuity errors : sum local = 7.96137e-17, global = 3.41395e-18, cumulative = -7.13099e-17
   Normalisation factor = 3.60505e-18
DICPCG:  Solving for p, Initial residual = 0.554513, Final residual = 7.51565e-07, No Iterations 34
time step continuity errors : sum local = 7.19582e-17, global = 3.65922e-18, cumulative = -6.76507e-17
ExecutionTime = 0.49 s  ClockTime = 0 s

Time = 1.86

Courant Number mean: 0.999899 max: 1.94999
   Normalisation factor = 0.013
smoothSolver:  Solving for Ux, Initial residual = 3.84157e-06, Final residual = 3.84157e-06, No Iterations 0
   Normalisation factor = 7.62662e-18
smoothSolver:  Solving for Uy, Initial residual = 0.369766, Final residual = 8.84915e-06, No Iterations 33
   Normalisation factor = 2.78398e-18
DICPCG:  Solving for p, Initial residual = 0.711388, Final residual = 0.031417, No Iterations 9
time step continuity errors : sum local = 8.03626e-17, global = 8.38528e-19, cumulative = -6.68122e-17
   Normalisation factor = 2.76412e-18
DICPCG:  Solving for p, Initial residual = 0.616527, Final residual = 5.63818e-07, No Iterations 34
time step continuity errors : sum local = 7.19374e-17, global = -6.40571e-18, cumulative = -7.32179e-17
ExecutionTime = 0.49 s  ClockTime = 0 s

Time = 1.87

Courant Number mean: 0.9999 max: 1.94999
   Normalisation factor = 0.013
smoothSolver:  Solving for Ux, Initial residual = 3.7985e-06, Final residual = 3.7985e-06, No Iterations 0
   Normalisation factor = 6.93111e-18
smoothSolver:  Solving for Uy, Initial residual = 0.469738, Final residual = 9.25182e-06, No Iterations 44
   Normalisation factor = 2.69445e-18
DICPCG:  Solving for p, Initial residual = 0.690245, Final residual = 0.0246164, No Iterations 18
time step continuity errors : sum local = 7.67887e-17, global = 1.96434e-18, cumulative = -7.12536e-17
   Normalisation factor = 3.22905e-18
DICPCG:  Solving for p, Initial residual = 0.552843, Final residual = 3.95317e-07, No Iterations 34
time step continuity errors : sum local = 8.03291e-17, global = -1.5249e-18, cumulative = -7.27785e-17
ExecutionTime = 0.5 s  ClockTime = 0 s

Time = 1.88

Courant Number mean: 0.999901 max: 1.94999
   Normalisation factor = 0.013
smoothSolver:  Solving for Ux, Initial residual = 3.75592e-06, Final residual = 3.75592e-06, No Iterations 0
   Normalisation factor = 7.45086e-18
smoothSolver:  Solving for Uy, Initial residual = 0.390897, Final residual = 8.04223e-06, No Iterations 42
   Normalisation factor = 3.03295e-18
DICPCG:  Solving for p, Initial residual = 0.671003, Final residual = 0.0327747, No Iterations 18
time step continuity errors : sum local = 7.16164e-17, global = 1.69227e-18, cumulative = -7.10862e-17
   Normalisation factor = 3.35121e-18
DICPCG:  Solving for p, Initial residual = 0.53014, Final residual = 7.90077e-07, No Iterations 34
time step continuity errors : sum local = 7.35193e-17, global = 1.74742e-19, cumulative = -7.09115e-17
ExecutionTime = 0.5 s  ClockTime = 0 s

Time = 1.89

Courant Number mean: 0.999902 max: 1.94999
   Normalisation factor = 0.013
smoothSolver:  Solving for Ux, Initial residual = 3.71382e-06, Final residual = 3.71382e-06, No Iterations 0
   Normalisation factor = 8.11095e-18
smoothSolver:  Solving for Uy, Initial residual = 0.489364, Final residual = 7.9079e-06, No Iterations 45
   Normalisation factor = 3.05975e-18
DICPCG:  Solving for p, Initial residual = 0.696809, Final residual = 0.0245276, No Iterations 18
time step continuity errors : sum local = 7.54585e-17, global = -7.70371e-19, cumulative = -7.16818e-17
   Normalisation factor = 3.7268e-18
DICPCG:  Solving for p, Initial residual = 0.565383, Final residual = 6.5604e-07, No Iterations 33
time step continuity errors : sum local = 7.04844e-17, global = 1.39314e-18, cumulative = -7.02887e-17
ExecutionTime = 0.5 s  ClockTime = 0 s

Time = 1.9

Courant Number mean: 0.999903 max: 1.94999
   Normalisation factor = 0.013
smoothSolver:  Solving for Ux, Initial residual = 3.67219e-06, Final residual = 3.67219e-06, No Iterations 0
   Normalisation factor = 7.68011e-18
smoothSolver:  Solving for Uy, Initial residual = 0.421162, Final residual = 7.80036e-06, No Iterations 37
   Normalisation factor = 2.96937e-18
DICPCG:  Solving for p, Initial residual = 0.724501, Final residual = 0.0256116, No Iterations 6
time step continuity errors : sum local = 8.4269e-17, global = -1.6376e-18, cumulative = -7.19263e-17
   Normalisation factor = 2.96587e-18
DICPCG:  Solving for p, Initial residual = 0.616828, Final residual = 6.98841e-07, No Iterations 34
time step continuity errors : sum local = 7.70822e-17, global = 2.40321e-18, cumulative = -6.95231e-17
ExecutionTime = 0.5 s  ClockTime = 0 s

Time = 1.91

Courant Number mean: 0.999904 max: 1.94999
   Normalisation factor = 0.013
smoothSolver:  Solving for Ux, Initial residual = 3.63102e-06, Final residual = 3.63102e-06, No Iterations 0
   Normalisation factor = 7.84482e-18
smoothSolver:  Solving for Uy, Initial residual = 0.58402, Final residual = 8.14714e-06, No Iterations 46
   Normalisation factor = 3.05585e-18
DICPCG:  Solving for p, Initial residual = 0.71912, Final residual = 0.0273452, No Iterations 18
time step continuity errors : sum local = 7.70517e-17, global = -1.82217e-18, cumulative = -7.13453e-17
   Normalisation factor = 3.6349e-18
DICPCG:  Solving for p, Initial residual = 0.572113, Final residual = 7.24544e-07, No Iterations 33
time step continuity errors : sum local = 7.30129e-17, global = 6.65973e-19, cumulative = -7.06793e-17
ExecutionTime = 0.5 s  ClockTime = 0 s

Time = 1.92

Courant Number mean: 0.999905 max: 1.94999
   Normalisation factor = 0.013
smoothSolver:  Solving for Ux, Initial residual = 3.59032e-06, Final residual = 3.59032e-06, No Iterations 0
   Normalisation factor = 9.21262e-18
smoothSolver:  Solving for Uy, Initial residual = 0.576916, Final residual = 9.8536e-06, No Iterations 45
   Normalisation factor = 3.26177e-18
DICPCG:  Solving for p, Initial residual = 0.71611, Final residual = 0.0266765, No Iterations 18
time step continuity errors : sum local = 7.30402e-17, global = -2.69272e-18, cumulative = -7.3372e-17
   Normalisation factor = 4.11817e-18
DICPCG:  Solving for p, Initial residual = 0.518077, Final residual = 8.03712e-07, No Iterations 33
time step continuity errors : sum local = 6.86229e-17, global = 1.15829e-18, cumulative = -7.22137e-17
ExecutionTime = 0.5 s  ClockTime = 0 s

Time = 1.93

Courant Number mean: 0.999907 max: 1.94999
   Normalisation factor = 0.013
smoothSolver:  Solving for Ux, Initial residual = 3.55007e-06, Final residual = 3.55007e-06, No Iterations 0
   Normalisation factor = 6.28237e-18
smoothSolver:  Solving for Uy, Initial residual = 0.433156, Final residual = 8.74293e-06, No Iterations 40
   Normalisation factor = 2.75703e-18
DICPCG:  Solving for p, Initial residual = 0.671236, Final residual = 0.0331325, No Iterations 9
time step continuity errors : sum local = 8.10537e-17, global = -3.28455e-18, cumulative = -7.54983e-17
   Normalisation factor = 2.76839e-18
DICPCG:  Solving for p, Initial residual = 0.638628, Final residual = 7.00185e-07, No Iterations 34
time step continuity errors : sum local = 7.86165e-17, global = -1.45822e-18, cumulative = -7.69565e-17
ExecutionTime = 0.51 s  ClockTime = 0 s

Time = 1.94

Courant Number mean: 0.999908 max: 1.94999
   Normalisation factor = 0.013
smoothSolver:  Solving for Ux, Initial residual = 3.51028e-06, Final residual = 3.51028e-06, No Iterations 0
   Normalisation factor = 1.03237e-17
smoothSolver:  Solving for Uy, Initial residual = 0.588609, Final residual = 9.92714e-06, No Iterations 45
   Normalisation factor = 3.60071e-18
DICPCG:  Solving for p, Initial residual = 0.710869, Final residual = 0.0266123, No Iterations 18
time step continuity errors : sum local = 8.09215e-17, global = -2.18294e-18, cumulative = -7.91394e-17
   Normalisation factor = 4.33771e-18
DICPCG:  Solving for p, Initial residual = 0.536992, Final residual = 9.07243e-07, No Iterations 34
time step continuity errors : sum local = 7.81007e-17, global = 1.25144e-18, cumulative = -7.7888e-17
ExecutionTime = 0.51 s  ClockTime = 0 s

Time = 1.95

Courant Number mean: 0.999909 max: 1.94999
   Normalisation factor = 0.013
smoothSolver:  Solving for Ux, Initial residual = 3.47093e-06, Final residual = 3.47093e-06, No Iterations 0
   Normalisation factor = 9.07854e-18
smoothSolver:  Solving for Uy, Initial residual = 0.573731, Final residual = 8.88369e-06, No Iterations 46
   Normalisation factor = 3.19487e-18
DICPCG:  Solving for p, Initial residual = 0.717035, Final residual = 0.027949, No Iterations 18
time step continuity errors : sum local = 8.18795e-17, global = -6.111e-19, cumulative = -7.84991e-17
   Normalisation factor = 4.05676e-18
DICPCG:  Solving for p, Initial residual = 0.530274, Final residual = 5.35749e-07, No Iterations 34
time step continuity errors : sum local = 8.14404e-17, global = 1.67472e-18, cumulative = -7.68244e-17
ExecutionTime = 0.51 s  ClockTime = 0 s

Time = 1.96

Courant Number mean: 0.99991 max: 1.94999
   Normalisation factor = 0.013
smoothSolver:  Solving for Ux, Initial residual = 3.43202e-06, Final residual = 3.43202e-06, No Iterations 0
   Normalisation factor = 1.02311e-17
smoothSolver:  Solving for Uy, Initial residual = 0.603785, Final residual = 8.80904e-06, No Iterations 46
   Normalisation factor = 3.69231e-18
DICPCG:  Solving for p, Initial residual = 0.760195, Final residual = 0.0291901, No Iterations 18
time step continuity errors : sum local = 7.82057e-17, global = -1.13211e-18, cumulative = -7.79565e-17
   Normalisation factor = 4.64527e-18
DICPCG:  Solving for p, Initial residual = 0.542703, Final residual = 6.69058e-07, No Iterations 34
time step continuity errors : sum local = 6.55328e-17, global = -1.56127e-18, cumulative = -7.95177e-17
ExecutionTime = 0.51 s  ClockTime = 0 s

Time = 1.97

Courant Number mean: 0.999911 max: 1.94999
   Normalisation factor = 0.013
smoothSolver:  Solving for Ux, Initial residual = 3.39354e-06, Final residual = 3.39354e-06, No Iterations 0
   Normalisation factor = 8.086e-18
smoothSolver:  Solving for Uy, Initial residual = 0.47409, Final residual = 9.63553e-06, No Iterations 44
   Normalisation factor = 2.94675e-18
DICPCG:  Solving for p, Initial residual = 0.694476, Final residual = 0.022257, No Iterations 18
time step continuity errors : sum local = 7.41595e-17, global = 4.2575e-18, cumulative = -7.52602e-17
   Normalisation factor = 3.30175e-18
DICPCG:  Solving for p, Initial residual = 0.59738, Final residual = 9.2761e-07, No Iterations 32
time step continuity errors : sum local = 8.01182e-17, global = 2.57037e-18, cumulative = -7.26899e-17
ExecutionTime = 0.52 s  ClockTime = 0 s

Time = 1.98

Courant Number mean: 0.999912 max: 1.94999
   Normalisation factor = 0.013
smoothSolver:  Solving for Ux, Initial residual = 3.3555e-06, Final residual = 3.3555e-06, No Iterations 0
   Normalisation factor = 9.94136e-18
smoothSolver:  Solving for Uy, Initial residual = 0.6303, Final residual = 9.6739e-06, No Iterations 46
   Normalisation factor = 3.38797e-18
DICPCG:  Solving for p, Initial residual = 0.697058, Final residual = 0.0168486, No Iterations 18
time step continuity errors : sum local = 6.9382e-17, global = -2.07619e-18, cumulative = -7.47661e-17
   Normalisation factor = 4.38774e-18
DICPCG:  Solving for p, Initial residual = 0.538359, Final residual = 7.52516e-07, No Iterations 33
time step continuity errors : sum local = 7.62661e-17, global = -3.57385e-18, cumulative = -7.83399e-17
ExecutionTime = 0.52 s  ClockTime = 0 s

Time = 1.99

Courant Number mean: 0.999913 max: 1.94999
   Normalisation factor = 0.013
smoothSolver:  Solving for Ux, Initial residual = 3.31789e-06, Final residual = 3.31789e-06, No Iterations 0
   Normalisation factor = 6.72299e-18
smoothSolver:  Solving for Uy, Initial residual = 0.387176, Final residual = 8.02803e-06, No Iterations 42
   Normalisation factor = 2.77275e-18
DICPCG:  Solving for p, Initial residual = 0.673562, Final residual = 0.016566, No Iterations 18
time step continuity errors : sum local = 7.9355e-17, global = -9.35875e-19, cumulative = -7.92758e-17
   Normalisation factor = 2.88642e-18
DICPCG:  Solving for p, Initial residual = 0.568412, Final residual = 4.69361e-07, No Iterations 34
time step continuity errors : sum local = 8.38791e-17, global = 1.03455e-18, cumulative = -7.82412e-17
ExecutionTime = 0.52 s  ClockTime = 0 s

Time = 2

Courant Number mean: 0.999914 max: 1.94999
   Normalisation factor = 0.013
smoothSolver:  Solving for Ux, Initial residual = 3.2807e-06, Final residual = 3.2807e-06, No Iterations 0
   Normalisation factor = 7.16497e-18
smoothSolver:  Solving for Uy, Initial residual = 0.505736, Final residual = 9.18578e-06, No Iterations 44
   Normalisation factor = 2.86867e-18
DICPCG:  Solving for p, Initial residual = 0.657358, Final residual = 0.0197326, No Iterations 18
time step continuity errors : sum local = 7.85589e-17, global = 3.50863e-18, cumulative = -7.47326e-17
   Normalisation factor = 3.6565e-18
DICPCG:  Solving for p, Initial residual = 0.494923, Final residual = 6.61165e-07, No Iterations 34
time step continuity errors : sum local = 7.89111e-17, global = -1.32484e-18, cumulative = -7.60574e-17
ExecutionTime = 0.52 s  ClockTime = 0 s

End

